<?xml version="1.0" encoding="UTF-8"?>

<!-- generated on 2026-01-16T13:44:15.595266+00:00 by Eclipse SUMO netedit 1.25.0
<neteditConfiguration xmlns:xsi="http://www.w3.org/2001/XMLSchema-instance" xsi:noNamespaceSchemaLocation="http://sumo.dlr.de/xsd/neteditConfiguration.xsd">

    <input>
        <sumo-net-file value="C:\Users\davco\Desktop\vci_project\net.net.xml"/>
    </input>

    <output>
        <output-file value="C:\Users\davco\Desktop\vci_project\net.net.xml"/>
    </output>

    <processing>
        <geometry.min-radius.fix.railways value="false"/>
        <geometry.avoid-overlap value="false"/>
        <geometry.max-grade.fix value="false"/>
        <offset.disable-normalization value="true"/>
        <lefthand value="0"/>
    </processing>

    <junctions>
        <no-turnarounds value="true"/>
        <junctions.corner-detail value="0"/>
        <junctions.limit-turn-speed value="-1.00"/>
        <rectangular-lane-cut value="0"/>
    </junctions>

    <pedestrian>
        <walkingareas value="0"/>
    </pedestrian>

</neteditConfiguration>
-->

<net version="1.20" avoidOverlap="0" xmlns:xsi="http://www.w3.org/2001/XMLSchema-instance" xsi:noNamespaceSchemaLocation="http://sumo.dlr.de/xsd/net_file.xsd">

    <location netOffset="-526017.24,-4547308.05" convBoundary="2266.49,0.00,12014.62,12900.40" origBoundary="-8.689824,41.076258,-8.546796,41.192513" projParameter="+proj=utm +zone=29 +ellps=WGS84 +datum=WGS84 +units=m +no_defs"/>

    <edge id=":100129_0" function="internal">
        <lane id=":100129_0_0" index="0" speed="18.05" length="39.81" shape="9025.73,6577.13 9020.27,6569.97 9013.50,6561.54 9006.44,6553.38 9000.10,6547.02"/>
        <lane id=":100129_0_1" index="1" speed="18.05" length="39.81" shape="9028.16,6575.03 9022.65,6567.82 9015.77,6559.28 9008.60,6551.02 9002.21,6544.61"/>
    </edge>
    <edge id=":100129_2" function="internal">
        <lane id=":100129_2_0" index="0" speed="25.00" length="39.38" shape="9030.45,6572.46 9000.10,6547.02"/>
        <lane id=":100129_2_1" index="1" speed="25.00" length="39.38" shape="9032.24,6569.74 9002.21,6544.61"/>
    </edge>
    <edge id=":1002093_0" function="internal">
        <lane id=":1002093_0_0" index="0" speed="33.33" length="8.20" shape="8090.56,11472.95 8089.87,11470.54 8088.65,11469.09 8087.43,11467.65 8086.74,11465.23"/>
        <lane id=":1002093_0_1" index="1" speed="33.33" length="8.20" shape="8090.56,11472.95 8089.93,11464.98"/>
        <lane id=":1002093_0_2" index="2" speed="33.33" length="8.20" shape="8093.75,11472.70 8093.12,11464.72"/>
        <lane id=":1002093_0_3" index="3" speed="33.33" length="8.20" shape="8096.94,11472.45 8096.31,11464.47"/>
    </edge>
    <edge id=":101187_0" function="internal">
        <lane id=":101187_0_0" index="0" speed="27.77" length="27.59" shape="10391.10,3192.79 10388.09,3185.60 10384.37,3178.70 10380.86,3172.72 10378.52,3168.28"/>
    </edge>
    <edge id=":101187_1" function="internal">
        <lane id=":101187_1_0" index="0" speed="33.33" length="28.02" shape="10391.10,3192.79 10381.47,3166.53"/>
        <lane id=":101187_1_1" index="1" speed="33.33" length="28.02" shape="10394.14,3191.80 10384.48,3165.44"/>
    </edge>
    <edge id=":1012780_0" function="internal">
        <lane id=":1012780_0_0" index="0" speed="13.89" length="0.25" shape="7895.62,10576.09 7895.53,10575.93"/>
        <lane id=":1012780_0_1" index="1" speed="13.89" length="0.25" shape="7898.43,10574.57 7898.28,10574.29"/>
    </edge>
    <edge id=":1026268_0" function="internal">
        <lane id=":1026268_0_0" index="0" speed="25.00" length="8.24" shape="9451.97,6516.22 9450.82,6518.47 9450.71,6520.37 9450.59,6522.26 9449.39,6524.47"/>
        <lane id=":1026268_0_1" index="1" speed="25.00" length="8.24" shape="9451.97,6516.22 9446.93,6522.42"/>
        <lane id=":1026268_0_2" index="2" speed="25.00" length="8.24" shape="9449.46,6514.24 9444.48,6520.38"/>
    </edge>
    <edge id=":1029780_0" function="internal">
        <lane id=":1029780_0_0" index="0" speed="26.39" length="0.10" shape="9536.35,6344.72 9536.32,6344.85"/>
        <lane id=":1029780_0_1" index="1" speed="26.39" length="0.10" shape="9533.24,6343.98 9533.23,6344.02"/>
    </edge>
    <edge id=":1032501_0" function="internal">
        <lane id=":1032501_0_0" index="0" speed="20.84" length="28.88" shape="4164.79,10248.98 4157.80,10243.23 4151.77,10239.97 4145.99,10237.75 4139.74,10235.11"/>
        <lane id=":1032501_0_1" index="1" speed="20.84" length="29.12" shape="4164.79,10248.98 4157.98,10242.73 4152.44,10238.50 4147.17,10235.32 4141.16,10232.25"/>
    </edge>
    <edge id=":1032501_2" function="internal">
        <lane id=":1032501_2_0" index="0" speed="25.00" length="29.31" shape="4164.79,10248.98 4143.68,10228.66"/>
        <lane id=":1032501_2_1" index="1" speed="25.00" length="29.31" shape="4167.02,10246.68 4145.90,10226.36"/>
        <lane id=":1032501_2_2" index="2" speed="25.00" length="29.31" shape="4169.25,10244.38 4148.12,10224.05"/>
    </edge>
    <edge id=":10337_0" function="internal">
        <lane id=":10337_0_0" index="0" speed="19.44" length="88.34" shape="5643.52,11309.00 5639.62,11220.71"/>
        <lane id=":10337_0_1" index="1" speed="19.44" length="88.34" shape="5646.72,11308.86 5642.82,11220.64"/>
    </edge>
    <edge id=":10337_2" function="internal">
        <lane id=":10337_2_0" index="0" speed="16.66" length="88.38" shape="5636.91,11308.97 5637.76,11292.39 5638.70,11264.86 5639.43,11237.32 5639.62,11220.71"/>
        <lane id=":10337_2_1" index="1" speed="16.66" length="88.38" shape="5640.12,11309.04 5640.96,11292.43 5641.91,11264.85 5642.63,11237.27 5642.82,11220.64"/>
    </edge>
    <edge id=":1073458_0" function="internal">
        <lane id=":1073458_0_0" index="0" speed="13.89" length="0.10" shape="4059.10,10087.57 4059.10,10087.57"/>
    </edge>
    <edge id=":1073461_0" function="internal">
        <lane id=":1073461_0_0" index="0" speed="11.11" length="0.10" shape="4089.90,10026.54 4089.90,10026.54"/>
    </edge>
    <edge id=":1073463_0" function="internal">
        <lane id=":1073463_0_0" index="0" speed="19.45" length="0.30" shape="7880.15,10648.46 7879.91,10648.28"/>
        <lane id=":1073463_0_1" index="1" speed="19.45" length="0.30" shape="7882.08,10645.91 7881.85,10645.73"/>
    </edge>
    <edge id=":1073464_0" function="internal">
        <lane id=":1073464_0_0" index="0" speed="13.89" length="0.17" shape="2988.08,11116.79 2988.14,11116.73"/>
        <lane id=":1073464_0_1" index="1" speed="13.89" length="0.17" shape="2990.45,11118.94 2990.62,11118.75"/>
    </edge>
    <edge id=":1073465_0" function="internal">
        <lane id=":1073465_0_0" index="0" speed="16.67" length="0.30" shape="5477.08,10764.20 5476.79,10764.14"/>
    </edge>
    <edge id=":108336_0" function="internal">
        <lane id=":108336_0_0" index="0" speed="25.00" length="0.29" shape="5865.91,5077.44 5865.61,5077.34"/>
        <lane id=":108336_0_1" index="1" speed="25.00" length="0.29" shape="5866.84,5074.37 5866.59,5074.30"/>
    </edge>
    <edge id=":108356_0" function="internal">
        <lane id=":108356_0_0" index="0" speed="11.11" length="10.12" shape="6162.78,5131.10 6159.87,5130.92 6157.88,5131.39 6155.99,5132.40 6153.35,5133.87"/>
    </edge>
    <edge id=":108356_1" function="internal">
        <lane id=":108356_1_0" index="0" speed="11.11" length="9.98" shape="6162.78,5131.10 6152.87,5129.90"/>
    </edge>
    <edge id=":108853_0" function="internal">
        <lane id=":108853_0_0" index="0" speed="20.84" length="8.91" shape="8302.24,6042.96 8300.46,6041.01 8299.22,6039.69 8297.92,6038.43 8295.97,6036.64"/>
    </edge>
    <edge id=":108853_1" function="internal">
        <lane id=":108853_1_0" index="0" speed="25.00" length="9.10" shape="8302.24,6042.96 8300.89,6040.72 8300.68,6038.79 8300.54,6036.79 8299.41,6034.38"/>
        <lane id=":108853_1_1" index="1" speed="25.00" length="9.10" shape="8304.61,6040.81 8303.31,6038.63 8303.15,6036.75 8303.05,6034.80 8301.97,6032.45"/>
    </edge>
    <edge id=":109014_0" function="internal">
        <lane id=":109014_0_0" index="0" speed="18.05" length="28.59" shape="5789.18,5022.21 5793.09,5025.68 5798.60,5030.50 5805.14,5035.37 5812.14,5039.02"/>
    </edge>
    <edge id=":109014_1" function="internal">
        <lane id=":109014_1_0" index="0" speed="25.00" length="28.72" shape="5786.99,5025.59 5793.37,5029.11 5799.39,5032.70 5805.51,5036.09 5812.14,5039.02"/>
        <lane id=":109014_1_1" index="1" speed="25.00" length="28.72" shape="5785.55,5028.45 5791.97,5031.99 5798.12,5035.63 5804.35,5039.07 5811.03,5042.02"/>
    </edge>
    <edge id=":109082_0" function="internal">
        <lane id=":109082_0_0" index="0" speed="19.45" length="22.33" shape="4580.55,5753.51 4579.59,5757.46 4578.41,5762.18 4577.46,5768.06 4577.23,5775.50"/>
    </edge>
    <edge id=":109082_1" function="internal">
        <lane id=":109082_1_0" index="0" speed="25.00" length="22.33" shape="4576.51,5753.18 4577.23,5775.50"/>
        <lane id=":109082_1_1" index="1" speed="25.00" length="22.33" shape="4573.32,5753.28 4574.03,5775.60"/>
        <lane id=":109082_1_2" index="2" speed="25.00" length="22.33" shape="4570.12,5753.39 4570.83,5775.71"/>
    </edge>
    <edge id=":11055_0" function="internal">
        <lane id=":11055_0_0" index="0" speed="18.05" length="18.48" shape="9104.53,9569.90 9105.30,9566.19 9106.28,9562.22 9106.69,9557.54 9105.71,9551.72"/>
    </edge>
    <edge id=":11055_1" function="internal">
        <lane id=":11055_1_0" index="0" speed="25.00" length="18.20" shape="9107.90,9569.08 9108.48,9563.60 9109.38,9559.80 9109.76,9556.08 9108.78,9550.81"/>
        <lane id=":11055_1_1" index="1" speed="25.00" length="18.20" shape="9111.13,9567.87 9111.67,9562.48 9112.51,9558.75 9112.84,9555.08 9111.85,9549.90"/>
        <lane id=":11055_1_2" index="2" speed="25.00" length="18.20" shape="9114.35,9566.66 9114.87,9561.36 9115.64,9557.69 9115.91,9554.09 9114.92,9548.99"/>
    </edge>
    <edge id=":110708_0" function="internal">
        <lane id=":110708_0_0" index="0" speed="18.05" length="3.77" shape="8994.07,6494.60 8998.10,6492.81"/>
        <lane id=":110708_0_1" index="1" speed="18.05" length="3.77" shape="8994.07,6494.60 8996.96,6495.80"/>
    </edge>
    <edge id=":110708_2" function="internal">
        <lane id=":110708_2_0" index="0" speed="22.22" length="4.52" shape="8994.07,6494.60 8995.81,6498.81"/>
        <lane id=":110708_2_1" index="1" speed="22.22" length="4.52" shape="8993.03,6497.63 8994.67,6501.80"/>
    </edge>
    <edge id=":113504_0" function="internal">
        <lane id=":113504_0_0" index="0" speed="19.44" length="8.00" shape="10045.97,9064.73 10040.23,9059.16"/>
        <lane id=":113504_0_1" index="1" speed="19.44" length="8.00" shape="10048.19,9062.42 10042.45,9056.85"/>
    </edge>
    <edge id=":114274_0" function="internal">
        <lane id=":114274_0_0" index="0" speed="23.61" length="0.44" shape="3773.97,8670.31 3773.89,8670.60"/>
        <lane id=":114274_0_1" index="1" speed="23.61" length="0.44" shape="3770.92,8669.34 3770.80,8669.77"/>
        <lane id=":114274_0_2" index="2" speed="23.61" length="0.44" shape="3767.87,8668.37 3767.71,8668.93"/>
    </edge>
    <edge id=":114983_0" function="internal">
        <lane id=":114983_0_0" index="0" speed="13.89" length="7.38" shape="6740.12,5305.39 6742.10,5306.18 6743.67,5306.15 6745.27,5306.03 6747.39,5306.58"/>
        <lane id=":114983_0_1" index="1" speed="13.89" length="7.38" shape="6740.12,5305.39 6741.88,5306.63 6743.01,5307.60 6744.18,5308.50 6746.08,5309.50"/>
    </edge>
    <edge id=":122993_0" function="internal">
        <lane id=":122993_0_0" index="0" speed="23.61" length="0.30" shape="11208.45,8789.73 11208.74,8789.65"/>
        <lane id=":122993_0_1" index="1" speed="23.61" length="0.30" shape="11209.25,8792.83 11209.52,8792.75"/>
    </edge>
    <edge id=":122995_0" function="internal">
        <lane id=":122995_0_0" index="0" speed="12.50" length="0.29" shape="9727.13,1684.52 9727.14,1684.56 9727.15,1684.59 9727.16,1684.62 9727.18,1684.66"/>
        <lane id=":122995_0_1" index="1" speed="12.50" length="0.29" shape="9724.06,1685.41 9724.09,1685.53 9724.12,1685.62 9724.15,1685.70 9724.20,1685.82"/>
    </edge>
    <edge id=":123014_0" function="internal">
        <lane id=":123014_0_0" index="0" speed="19.45" length="27.95" shape="7250.34,5596.55 7243.07,5593.56 7235.49,5591.13 7228.70,5589.26 7223.79,5587.92"/>
    </edge>
    <edge id=":123014_1" function="internal">
        <lane id=":123014_1_0" index="0" speed="25.00" length="27.96" shape="7250.34,5596.55 7225.18,5584.35"/>
        <lane id=":123014_1_1" index="1" speed="25.00" length="27.96" shape="7251.74,5593.67 7226.58,5581.47"/>
    </edge>
    <edge id=":123952_0" function="internal">
        <lane id=":123952_0_0" index="0" speed="18.05" length="8.86" shape="7288.72,5590.12 7290.77,5591.60 7291.70,5593.27 7292.64,5594.93 7294.69,5596.40"/>
    </edge>
    <edge id=":123952_1" function="internal">
        <lane id=":123952_1_0" index="0" speed="22.22" length="8.00" shape="7287.38,5593.16 7294.69,5596.40"/>
        <lane id=":123952_1_1" index="1" speed="22.22" length="8.00" shape="7286.08,5596.09 7293.40,5599.33"/>
    </edge>
    <edge id=":123973_0" function="internal">
        <lane id=":123973_0_0" index="0" speed="13.89" length="0.10" shape="5156.61,4528.18 5156.53,4528.20"/>
    </edge>
    <edge id=":124075_0" function="internal">
        <lane id=":124075_0_0" index="0" speed="18.05" length="50.51" shape="8136.33,5834.00 8127.34,5827.08 8114.14,5818.54 8101.43,5810.91 8093.91,5806.70"/>
    </edge>
    <edge id=":124075_1" function="internal">
        <lane id=":124075_1_0" index="0" speed="25.00" length="50.51" shape="8136.33,5834.00 8128.22,5827.07 8116.67,5818.28 8104.89,5809.77 8096.11,5803.66"/>
        <lane id=":124075_1_1" index="1" speed="25.00" length="50.51" shape="8138.59,5831.73 8130.45,5824.78 8118.86,5815.94 8107.05,5807.37 8098.24,5801.24"/>
    </edge>
    <edge id=":124300_0" function="internal">
        <lane id=":124300_0_0" index="0" speed="19.45" length="8.59" shape="6718.29,5295.78 6720.67,5296.47 6722.52,5296.27 6724.33,5296.13 6726.61,5296.98"/>
    </edge>
    <edge id=":124300_1" function="internal">
        <lane id=":124300_1_0" index="0" speed="22.22" length="7.58" shape="6718.29,5295.78 6720.33,5296.83 6721.71,5297.57 6723.06,5298.37 6724.98,5299.60"/>
        <lane id=":124300_1_1" index="1" speed="22.22" length="7.58" shape="6716.83,5298.63 6718.79,5299.64 6720.13,5300.35 6721.43,5301.13 6723.29,5302.31"/>
    </edge>
    <edge id=":124921_0" function="internal">
        <lane id=":124921_0_0" index="0" speed="22.23" length="22.18" shape="10952.04,8947.67 10947.06,8952.53 10943.12,8957.03 10939.98,8961.00 10937.39,8964.28"/>
    </edge>
    <edge id=":124921_1" function="internal">
        <lane id=":124921_1_0" index="0" speed="25.00" length="22.20" shape="10952.04,8947.67 10934.63,8961.52"/>
        <lane id=":124921_1_1" index="1" speed="25.00" length="22.20" shape="10949.91,8945.28 10932.58,8959.07"/>
    </edge>
    <edge id=":125211_0" function="internal">
        <lane id=":125211_0_0" index="0" speed="13.89" length="48.45" shape="5372.24,10706.13 5383.23,10707.23 5398.23,10707.71 5412.33,10707.82 5420.62,10707.81"/>
    </edge>
    <edge id=":125211_1" function="internal">
        <lane id=":125211_1_0" index="0" speed="13.89" length="48.24" shape="5372.24,10706.13 5382.46,10707.68 5396.14,10709.21 5409.85,10710.46 5420.17,10711.20"/>
        <lane id=":125211_1_1" index="1" speed="13.89" length="48.24" shape="5371.60,10709.27 5381.83,10710.83 5395.52,10712.36 5409.25,10713.62 5419.58,10714.37"/>
    </edge>
    <edge id=":125712_0" function="internal">
        <lane id=":125712_0_0" index="0" speed="18.05" length="28.83" shape="8211.32,5919.61 8209.53,5914.67 8206.47,5907.95 8202.35,5900.81 8197.38,5894.60"/>
    </edge>
    <edge id=":125712_1" function="internal">
        <lane id=":125712_1_0" index="0" speed="25.00" length="28.78" shape="8215.14,5917.12 8210.88,5911.18 8206.72,5905.47 8202.32,5899.96 8197.38,5894.60"/>
        <lane id=":125712_1_1" index="1" speed="25.00" length="28.78" shape="8217.51,5914.94 8213.24,5908.98 8209.03,5903.24 8204.60,5897.70 8199.64,5892.33"/>
    </edge>
    <edge id=":12622_0" function="internal">
        <lane id=":12622_0_0" index="0" speed="22.22" length="29.65" shape="5335.15,4050.62 5334.98,4020.98"/>
        <lane id=":12622_0_1" index="1" speed="22.22" length="29.65" shape="5338.35,4050.60 5338.18,4020.95"/>
    </edge>
    <edge id=":12622_2" function="internal">
        <lane id=":12622_2_0" index="0" speed="20.84" length="29.64" shape="5331.37,4050.36 5332.24,4045.09 5333.47,4037.57 5334.55,4029.10 5334.98,4020.98"/>
    </edge>
    <edge id=":126747_0" function="internal">
        <lane id=":126747_0_0" index="0" speed="18.05" length="31.03" shape="4572.81,5638.28 4573.59,5648.71 4574.95,5657.38 4576.55,5664.12 4578.03,5668.75"/>
    </edge>
    <edge id=":126747_1" function="internal">
        <lane id=":126747_1_0" index="0" speed="25.00" length="31.26" shape="4572.81,5638.28 4573.80,5669.53"/>
        <lane id=":126747_1_1" index="1" speed="25.00" length="31.26" shape="4569.61,5638.39 4570.60,5669.63"/>
        <lane id=":126747_1_2" index="2" speed="25.00" length="31.26" shape="4566.41,5638.50 4567.40,5669.74"/>
    </edge>
    <edge id=":127164_0" function="internal">
        <lane id=":127164_0_0" index="0" speed="12.50" length="24.19" shape="6022.26,5117.16 6015.10,5115.80 6008.66,5114.03 6003.14,5112.40 5998.76,5111.48"/>
    </edge>
    <edge id=":127164_1" function="internal">
        <lane id=":127164_1_0" index="0" speed="13.89" length="21.24" shape="6022.67,5113.99 6015.95,5112.81 6010.48,5111.40 6005.96,5109.98 6002.09,5108.82"/>
    </edge>
    <edge id=":127875_0" function="internal">
        <lane id=":127875_0_0" index="0" speed="26.39" length="0.29" shape="8525.56,6195.25 8525.78,6195.40"/>
        <lane id=":127875_0_1" index="1" speed="26.39" length="0.29" shape="8523.73,6197.87 8523.99,6198.05"/>
    </edge>
    <edge id=":129089_0" function="internal">
        <lane id=":129089_0_0" index="0" speed="18.05" length="45.70" shape="9397.53,6578.74 9364.18,6609.99"/>
        <lane id=":129089_0_1" index="1" speed="18.05" length="46.61" shape="9395.32,6576.43 9361.27,6608.26"/>
    </edge>
    <edge id=":129089_2" function="internal">
        <lane id=":129089_2_0" index="0" speed="25.00" length="47.07" shape="9395.32,6576.43 9386.13,6584.57 9375.88,6592.82 9366.18,6600.28 9358.64,6606.02"/>
        <lane id=":129089_2_1" index="1" speed="25.00" length="47.07" shape="9393.11,6574.12 9383.94,6582.24 9373.73,6590.45 9364.07,6597.87 9356.55,6603.59"/>
    </edge>
    <edge id=":130582_0" function="internal">
        <lane id=":130582_0_0" index="0" speed="20.83" length="0.24" shape="10921.81,8972.27 10921.67,8972.38"/>
        <lane id=":130582_0_1" index="1" speed="20.83" length="0.24" shape="10919.75,8969.81 10919.53,8970.01"/>
    </edge>
    <edge id=":13107_0" function="internal">
        <lane id=":13107_0_0" index="0" speed="12.50" length="23.41" shape="3862.15,10172.72 3862.83,10166.36 3862.32,10161.20 3861.13,10156.03 3859.78,10149.65"/>
        <lane id=":13107_0_1" index="1" speed="12.50" length="24.54" shape="3865.29,10173.34 3865.97,10166.80 3865.47,10161.24 3864.28,10155.68 3862.94,10149.11"/>
    </edge>
    <edge id=":13107_2" function="internal">
        <lane id=":13107_2_0" index="0" speed="12.50" length="24.58" shape="3865.29,10173.34 3866.34,10166.07 3866.77,10159.29 3866.86,10153.40 3866.92,10148.84"/>
    </edge>
    <edge id=":131629_0" function="internal">
        <lane id=":131629_0_0" index="0" speed="18.05" length="3.45" shape="4548.67,5770.70 4548.63,5769.68 4548.55,5768.98 4548.38,5768.30 4548.06,5767.32"/>
    </edge>
    <edge id=":131629_1" function="internal">
        <lane id=":131629_1_0" index="0" speed="25.00" length="3.50" shape="4551.87,5770.60 4551.75,5767.10"/>
        <lane id=":131629_1_1" index="1" speed="25.00" length="3.50" shape="4555.07,5770.49 4554.95,5766.99"/>
    </edge>
    <edge id=":131976_0" function="internal">
        <lane id=":131976_0_0" index="0" speed="22.22" length="0.30" shape="3789.74,10316.21 3789.54,10316.43"/>
        <lane id=":131976_0_1" index="1" speed="22.22" length="0.30" shape="3787.43,10314.00 3787.23,10314.22"/>
        <lane id=":131976_0_2" index="2" speed="22.22" length="0.30" shape="3785.12,10311.79 3784.91,10312.01"/>
    </edge>
    <edge id=":133532_0" function="internal">
        <lane id=":133532_0_0" index="0" speed="22.23" length="14.57" shape="8185.19,5846.60 8188.70,5849.63 8191.50,5851.72 8194.06,5853.42 8196.88,5855.27"/>
    </edge>
    <edge id=":133532_1" function="internal">
        <lane id=":133532_1_0" index="0" speed="27.78" length="14.75" shape="8185.19,5846.60 8188.20,5849.79 8189.86,5852.32 8191.45,5854.94 8194.22,5858.36"/>
        <lane id=":133532_1_1" index="1" speed="27.78" length="14.75" shape="8183.03,5848.96 8185.98,5852.10 8187.61,5854.60 8189.16,5857.17 8191.88,5860.54"/>
    </edge>
    <edge id=":135155_0" function="internal">
        <lane id=":135155_0_0" index="0" speed="12.50" length="26.67" shape="5333.19,4272.95 5334.26,4264.81 5333.88,4258.67 5332.21,4253.24 5329.41,4247.23"/>
        <lane id=":135155_0_1" index="1" speed="12.50" length="27.41" shape="5336.34,4273.55 5337.48,4265.13 5337.21,4258.73 5335.64,4253.12 5332.88,4247.03"/>
    </edge>
    <edge id=":135155_2" function="internal">
        <lane id=":135155_2_0" index="0" speed="16.66" length="27.08" shape="5336.34,4273.55 5337.62,4265.19 5338.02,4258.92 5338.04,4253.26 5338.16,4246.71"/>
        <lane id=":135155_2_1" index="1" speed="16.66" length="27.08" shape="5339.48,4274.15 5340.78,4265.70 5341.20,4259.36 5341.22,4253.64 5341.34,4247.07"/>
    </edge>
    <edge id=":1365_0" function="internal">
        <lane id=":1365_0_0" index="0" speed="19.45" length="41.17" shape="9142.30,9558.15 9141.84,9572.32 9140.88,9584.36 9140.08,9593.57 9140.12,9599.25"/>
    </edge>
    <edge id=":1365_1" function="internal">
        <lane id=":1365_1_0" index="0" speed="25.00" length="41.17" shape="9139.10,9558.16 9136.58,9599.46"/>
        <lane id=":1365_1_1" index="1" speed="25.00" length="41.17" shape="9135.90,9558.16 9133.39,9599.26"/>
        <lane id=":1365_1_2" index="2" speed="25.00" length="41.17" shape="9132.70,9558.17 9130.20,9599.06"/>
    </edge>
    <edge id=":137194_0" function="internal">
        <lane id=":137194_0_0" index="0" speed="13.89" length="0.13" shape="5333.46,4433.76 5333.36,4433.83"/>
    </edge>
    <edge id=":13826_0" function="internal">
        <lane id=":13826_0_0" index="0" speed="20.84" length="29.02" shape="3516.27,9150.10 3519.57,9146.84 3524.15,9142.37 3529.48,9136.27 3535.06,9128.12"/>
    </edge>
    <edge id=":13826_1" function="internal">
        <lane id=":13826_1_0" index="0" speed="25.00" length="29.35" shape="3519.12,9152.65 3535.06,9128.12"/>
        <lane id=":13826_1_1" index="1" speed="25.00" length="29.35" shape="3521.82,9154.36 3537.81,9129.75"/>
        <lane id=":13826_1_2" index="2" speed="25.00" length="29.35" shape="3524.52,9156.08 3540.57,9131.38"/>
    </edge>
    <edge id=":139000_0" function="internal">
        <lane id=":139000_0_0" index="0" speed="25.00" length="16.94" shape="5379.27,4321.69 5379.76,4326.64 5379.45,4330.10 5379.21,4333.55 5379.91,4338.46"/>
        <lane id=":139000_0_1" index="1" speed="25.00" length="16.94" shape="5376.13,4322.28 5376.62,4327.28 5376.32,4330.77 5376.09,4334.25 5376.79,4339.20"/>
    </edge>
    <edge id=":139000_2" function="internal">
        <lane id=":139000_2_0" index="0" speed="19.45" length="16.78" shape="5372.98,4322.88 5373.66,4328.26 5373.65,4332.45 5373.39,4336.04 5373.33,4339.61"/>
    </edge>
    <edge id=":139446_0" function="internal">
        <lane id=":139446_0_0" index="0" speed="18.05" length="8.73" shape="7756.87,5718.64 7754.44,5718.07 7752.93,5716.97 7751.43,5715.86 7748.99,5715.30"/>
    </edge>
    <edge id=":139446_1" function="internal">
        <lane id=":139446_1_0" index="0" speed="25.00" length="8.00" shape="7756.99,5715.58 7748.99,5715.30"/>
        <lane id=":139446_1_1" index="1" speed="25.00" length="8.00" shape="7757.10,5712.39 7749.10,5712.10"/>
    </edge>
    <edge id=":140968_0" function="internal">
        <lane id=":140968_0_0" index="0" speed="30.55" length="0.10" shape="9762.46,5438.46 9762.43,5438.57"/>
        <lane id=":140968_0_1" index="1" speed="30.55" length="0.10" shape="9759.35,5437.71 9759.34,5437.75"/>
    </edge>
    <edge id=":141513_0" function="internal">
        <lane id=":141513_0_0" index="0" speed="18.05" length="8.91" shape="6712.84,5322.33 6710.86,5320.76 6710.00,5319.05 6709.16,5317.32 6707.20,5315.70"/>
    </edge>
    <edge id=":141513_1" function="internal">
        <lane id=":141513_1_0" index="0" speed="22.22" length="7.94" shape="6714.22,5319.51 6707.20,5315.70"/>
        <lane id=":141513_1_1" index="1" speed="22.22" length="7.94" shape="6715.62,5316.64 6708.70,5312.87"/>
    </edge>
    <edge id=":143033_0" function="internal">
        <lane id=":143033_0_0" index="0" speed="16.66" length="26.33" shape="10607.72,9151.08 10615.27,9150.74 10622.49,9149.22 10628.74,9147.31 10633.36,9145.79"/>
    </edge>
    <edge id=":143033_1" function="internal">
        <lane id=":143033_1_0" index="0" speed="19.44" length="26.14" shape="10607.72,9151.08 10614.60,9151.30 10620.76,9151.06 10626.90,9150.47 10633.75,9149.67"/>
        <lane id=":143033_1_1" index="1" speed="19.44" length="26.14" shape="10607.51,9154.28 10614.40,9154.50 10620.58,9154.27 10626.74,9153.70 10633.61,9152.91"/>
    </edge>
    <edge id=":143605_0" function="internal">
        <lane id=":143605_0_0" index="0" speed="27.78" length="0.10" shape="11873.34,8260.44 11873.37,8260.31"/>
        <lane id=":143605_0_1" index="1" speed="27.78" length="0.10" shape="11876.48,8261.06 11876.49,8261.02"/>
    </edge>
    <edge id=":144565_0" function="internal">
        <lane id=":144565_0_0" index="0" speed="16.66" length="8.77" shape="6278.06,5144.53 6275.56,5144.73 6273.88,5145.60 6272.21,5146.43 6269.72,5146.56"/>
    </edge>
    <edge id=":144565_1" function="internal">
        <lane id=":144565_1_0" index="0" speed="22.22" length="7.92" shape="6278.06,5144.53 6270.20,5143.22"/>
        <lane id=":144565_1_1" index="1" speed="22.22" length="7.92" shape="6278.42,5141.35 6270.67,5140.05"/>
    </edge>
    <edge id=":144960_0" function="internal">
        <lane id=":144960_0_0" index="0" speed="19.44" length="8.27" shape="10593.30,9173.20 10590.82,9173.57 10589.22,9174.58 10587.62,9175.59 10585.14,9175.96"/>
        <lane id=":144960_0_1" index="1" speed="19.44" length="8.27" shape="10593.30,9173.20 10585.31,9172.76"/>
        <lane id=":144960_0_2" index="2" speed="19.44" length="8.27" shape="10593.48,9170.01 10585.49,9169.57"/>
    </edge>
    <edge id=":146260_0" function="internal">
        <lane id=":146260_0_0" index="0" speed="15.28" length="27.05" shape="5577.19,10901.37 5556.92,10883.46"/>
    </edge>
    <edge id=":146260_1" function="internal">
        <lane id=":146260_1_0" index="0" speed="16.67" length="27.04" shape="5579.26,10898.67 5574.53,10895.61 5567.89,10891.32 5561.36,10886.90 5556.92,10883.46"/>
    </edge>
    <edge id=":148016_0" function="internal">
        <lane id=":148016_0_0" index="0" speed="19.45" length="3.84" shape="3865.02,10242.97 3864.29,10243.84 3863.87,10244.51 3863.62,10245.26 3863.42,10246.37"/>
    </edge>
    <edge id=":148016_1" function="internal">
        <lane id=":148016_1_0" index="0" speed="25.00" length="2.81" shape="3862.60,10240.87 3861.97,10241.46 3861.43,10241.75 3860.89,10242.03 3860.22,10242.60"/>
        <lane id=":148016_1_1" index="1" speed="25.00" length="2.81" shape="3860.18,10238.77 3859.58,10239.33 3859.07,10239.59 3858.54,10239.85 3857.91,10240.38"/>
        <lane id=":148016_1_2" index="2" speed="25.00" length="2.81" shape="3857.77,10236.67 3857.19,10237.19 3856.70,10237.44 3856.20,10237.67 3855.60,10238.17"/>
    </edge>
    <edge id=":148529_0" function="internal">
        <lane id=":148529_0_0" index="0" speed="25.00" length="0.30" shape="9738.48,5432.89 9738.55,5432.59"/>
        <lane id=":148529_0_1" index="1" speed="25.00" length="0.30" shape="9741.58,5433.65 9741.65,5433.38"/>
    </edge>
    <edge id=":1496_0" function="internal">
        <lane id=":1496_0_0" index="0" speed="18.05" length="24.73" shape="4020.91,8339.28 4016.96,8340.92 4012.06,8343.22 4006.28,8346.65 3999.68,8351.71"/>
    </edge>
    <edge id=":1496_1" function="internal">
        <lane id=":1496_1_0" index="0" speed="22.22" length="24.66" shape="4018.37,8335.64 3999.68,8351.71"/>
        <lane id=":1496_1_1" index="1" speed="22.22" length="24.66" shape="4016.28,8333.22 3997.59,8349.29"/>
        <lane id=":1496_1_2" index="2" speed="22.22" length="24.66" shape="4014.20,8330.79 3995.50,8346.87"/>
    </edge>
    <edge id=":14987_0" function="internal">
        <lane id=":14987_0_0" index="0" speed="25.00" length="9.05" shape="7976.43,10718.04 7977.32,10720.36 7979.29,10721.29 7981.50,10722.18 7983.13,10724.37"/>
        <lane id=":14987_0_1" index="1" speed="25.00" length="9.05" shape="7976.43,10718.04 7976.87,10720.36 7977.82,10721.78 7978.99,10723.15 7980.08,10725.36"/>
    </edge>
    <edge id=":14987_2" function="internal">
        <lane id=":14987_2_0" index="0" speed="22.22" length="8.56" shape="7972.30,10719.15 7973.56,10721.37 7974.80,10722.70 7975.97,10724.05 7977.04,10726.35"/>
        <lane id=":14987_2_1" index="1" speed="22.22" length="8.56" shape="7969.35,10720.40 7970.58,10722.55 7971.80,10723.82 7972.96,10725.12 7974.00,10727.34"/>
    </edge>
    <edge id=":15171_0" function="internal">