<?xml version="1.0" encoding="UTF-8"?>

<!-- generated on 2026-01-16T13:46:37.396949+00:00 by Eclipse SUMO duarouter 1.25.0
<duarouterConfiguration xmlns:xsi="http://www.w3.org/2001/XMLSchema-instance" xsi:noNamespaceSchemaLocation="http://sumo.dlr.de/xsd/duarouterConfiguration.xsd">

    <input>
        <net-file value="net.net.xml"/>
        <additional-files value="taz.xml"/>
        <route-files value="taz_dummy_trips.xml"/>
    </input>

    <output>
        <output-file value="routes_pool.rou.xml"/>
    </output>

    <report>
        <ignore-errors value="true"/>
    </report>

</duarouterConfiguration>
-->

<routes xmlns:xsi="http://www.w3.org/2001/XMLSchema-instance" xsi:noNamespaceSchemaLocation="http://sumo.dlr.de/xsd/routes_file.xsd">
    <vType id="taz_vehicle" vClass="passenger"/>
    <vehicle id="t_1_to_2" type="taz_vehicle" depart="0.00" fromTaz="1" toTaz="2">
        <route edges="1019655 1016647 1016648 2020467 1019667 1188057 1188053"/>
    </vehicle>
    <vehicle id="t_1_to_3" type="taz_vehicle" depart="0.00" fromTaz="1" toTaz="3">
        <route edges="1019655 1016647 1016648 2020467 1250858 1062922 1188058 1071243 1071244 1016652 1020174"/>
    </vehicle>
    <vehicle id="t_1_to_4" type="taz_vehicle" depart="0.00" fromTaz="1" toTaz="4">
        <route edges="1019655 1016647 1016648 2020467 1250858 1062922 1188058 1071243 1071244 1016652 1016653 1016654 1016657 1949247 1975644 1975659 1975655 1975654 1716793"/>
    </vehicle>
    <vehicle id="t_1_to_5" type="taz_vehicle" depart="0.00" fromTaz="1" toTaz="5">
        <route edges="1019655 1016647 1016648 2020467 1250858 1062922 1188058 1071243 1071244 1016652 1016653 1016654 1949244 1949245 1051020 1054906 1523228"/>
    </vehicle>
    <vehicle id="t_1_to_6" type="taz_vehicle" depart="0.00" fromTaz="1" toTaz="6">
        <route edges="1019655 1016647 1016648 2020467 1250858 1062922 1188058 1071243 1071244 1016652 1016653 1016654 1949244 1949245 1051020 1051021 1051022 1051023 1062317"/>
    </vehicle>
    <vehicle id="t_1_to_7" type="taz_vehicle" depart="0.00" fromTaz="1" toTaz="7">
        <route edges="1019655 1016647 1016648 2020467 1250858 1062922 1188058 1071243 1071244 1016652 1016653 1016654 1949244 1949245 1051020 1051021 1051022 1051023 1062755 1062241 1063338"/>
    </vehicle>
    <vehicle id="t_1_to_8" type="taz_vehicle" depart="0.00" fromTaz="1" toTaz="8">
        <route edges="1019655 1016647 1016648 2020467 1250858 1062922 1188058 1071243 1071244 1016652 1016653 1016654 1949244 1949245 1051020 1051021 1051022 1051023 1062755 1062241 1063512 1051041 1063684 1050193 1019714 1019715 1411565 1177267"/>
    </vehicle>
    <vehicle id="t_1_to_9" type="taz_vehicle" depart="0.00" fromTaz="1" toTaz="9">
        <route edges="1019655 1016647 1016648 2020467 1250858 1062922 1188058 1071243 1071244 1016652 1016653 1016654 1949244 1949245 1051020 1051021 1051022 1051023 1062755 1062241 1063512 1051041 1063684 1050193 1019714 1019715 1411565 1411566 1177259 1969029 1969025"/>
    </vehicle>
    <vehicle id="t_1_to_10" type="taz_vehicle" depart="0.00" fromTaz="1" toTaz="10">
        <route edges="1019655 1016647 1016648 2020467 1250858 1062922 1188058 1071243 1071244 1016652 1016653 1016654 1949244 1949245 1051020 1051021 1051022 1051023 1062755 1062241 1063512 1051041 1019717 1019709 1019710"/>
    </vehicle>
    <vehicle id="t_1_to_11" type="taz_vehicle" depart="0.00" fromTaz="1" toTaz="11">
        <route edges="1019655 1016647 1016648 2020467 1250858 1062922 1188058 1071243 1071244 1016652 1016653 1016654 1949244 1949245 1051020 1051021 1051022 1051023 1062755 1062241 1063512 1051041 1063684 1051045 1051046 1051047 1051051 1051053 1972190 1051058 2011026 1189895 1051063 1401531"/>
    </vehicle>
    <vehicle id="t_1_to_12" type="taz_vehicle" depart="0.00" fromTaz="1" toTaz="12">
        <route edges="1019655 1016647 1016648 2020467 1250858 1062922 1188058 1071243 1071244 1016652 1016653 1016654 1949244 1949245 1051020 1051021 1051022 1051023 1062755 1062241 1063512 1051041 1063684 1051045 1051046 1051047 1051051 1051053 1972190 1051058 2011026 1189895 1051063 2011010 2011017 1051100 1051126 1036159"/>
    </vehicle>
    <vehicle id="t_1_to_13" type="taz_vehicle" depart="0.00" fromTaz="1" toTaz="13">
        <route edges="1019655 1016647 1016648 2020467 1250858 1062922 1188058 1071243 1071244 1016652 1016653 1016654 1949244 1949245 1051020 1051021 1051022 1051023 1062755 1062241 1063512 1051041 1063684 1051045 1051046 1051047 1051051 1051053 1972190 1051058 2011026 1189895 1051063 2011010 2011017 1051100 1051126 1051128 2011021 1398756"/>
    </vehicle>
    <vehicle id="t_1_to_14" type="taz_vehicle" depart="0.00" fromTaz="1" toTaz="14">
        <route edges="1019655 1016647 1016648 2020467 1250858 1062922 1188058 1071243 1071244 1016652 1016653 1016654 1949244 1949245 1051020 1051021 1051022 1051023 1062755 1062241 1063512 1051041 1063684 1051045 1051046 1051047 1051051 1051053 1972190 1051058 2011026 1189895 1051063 2011010 2011017 1051100 1051126 1051128 2011021 2011014 1398689"/>
    </vehicle>
    <vehicle id="t_1_to_15" type="taz_vehicle" depart="0.00" fromTaz="1" toTaz="15">
        <route edges="1019655 1016647 1016648 2020467 1250858 1062922 1188058 1071243 1071244 1016652 1016653 1016654 1949244 1949245 1051020 1051021 1051022 1051023 1062755 1062241 1063512 1051041 1063684 1051045 1051046 1051047 1051051 1051053 1019992 2027240 1401537"/>
    </vehicle>
    <vehicle id="t_1_to_16" type="taz_vehicle" depart="0.00" fromTaz="1" toTaz="16">
        <route edges="1019655 1265039 1016645 1516937 2020444 1250859 1254015 1254016 1254017 1254018 1254019 1122619 1122620 1074109 1074110 1214189 1214190 1181551 2028954 1016680 1405108 1269427 1181482 1181483 1181484 1181485 1181486 1181487 1176004 1175977 1175980"/>
    </vehicle>
    <vehicle id="t_1_to_17" type="taz_vehicle" depart="0.00" fromTaz="1" toTaz="17">
        <route edges="1019655 1265039 1016645 1516937 2020444 1250859 1254015 1254016 1254017 1254018 1254019 1122619 1122620 1074109 1074110 1214189 1214190 1181551 2028954 1016680 1405108 1269427 1181482 1181483 1181484 1181485 1935065"/>
    </vehicle>
    <vehicle id="t_1_to_18" type="taz_vehicle" depart="0.00" fromTaz="1" toTaz="18">
        <route edges="1019655 1265039 1016645 1516937 2020444 1250859 1254015 1254016 1254017 1254018 1254019 1122619 1122620 1074109 1074110 1214189 1214190 1181551 2028954 1016680 1405108 1269427 1181482 1181483 1215220 1215221"/>
    </vehicle>
    <vehicle id="t_1_to_19" type="taz_vehicle" depart="0.00" fromTaz="1" toTaz="19">
        <route edges="1019655 1265039 1016645 1516937 2020444 1250859 1254015 1254016 1254017 1254018 1254019 1122619 1122620 1074109 1074110 1214189 1214190 1181551 2028954 1016680 1016681 1016682 1401516 1401517"/>
    </vehicle>
    <vehicle id="t_1_to_20" type="taz_vehicle" depart="0.00" fromTaz="1" toTaz="20">
        <route edges="1019655 1265039 1016645 1516937 2020444 1250859 1254015 1254016 1254017 1254018 1254019 1122619 1122620 1074109 1074110 1214189 1214190 1181551 2028954 1016680 1016681 1016682 1181543"/>
    </vehicle>
    <vehicle id="t_1_to_21" type="taz_vehicle" depart="0.00" fromTaz="1" toTaz="21">
        <route edges="1019655 1265039 1016645 1516937 2020444 1250859 1254015 1254016 1254017 1254018 1254019 1122619 1122620 1074109 1074110 1214189 1214190 1181551 1036157 1135403 1135405"/>
    </vehicle>
    <vehicle id="t_1_to_22" type="taz_vehicle" depart="0.00" fromTaz="1" toTaz="22">
        <route edges="1019655 1265039 1016645 1516937 2020444 1250859 1254015 1254016 1254017 1254018 1254019 1122619 1122620 1074109 1074110 1111488"/>
    </vehicle>
    <vehicle id="t_1_to_23" type="taz_vehicle" depart="0.00" fromTaz="1" toTaz="23">
        <route edges="1019655 1265039 1016645 1516937 2020444 1250859 1254015 1254016 1254017 1254018 1254019 1122619 1122620 1210226"/>
    </vehicle>
    <vehicle id="t_1_to_24" type="taz_vehicle" depart="0.00" fromTaz="1" toTaz="24">
        <route edges="1019655 1265039 1016645 1516937 2020444 1250859 1254015 1254016 1254017 1254018 1254019 1019569"/>
    </vehicle>
    <vehicle id="t_1_to_25" type="taz_vehicle" depart="0.00" fromTaz="1" toTaz="25">
        <route edges="1019655 1265039 1016645 1516937 2020444 1250859 1254015 1254016 1254017 1020029"/>
    </vehicle>
    <vehicle id="t_1_to_26" type="taz_vehicle" depart="0.00" fromTaz="1" toTaz="26">
        <route edges="1019655 1265039 1016645 1516937 2020444 1250859 1254015 1020046"/>
    </vehicle>
    <vehicle id="t_2_to_1" type="taz_vehicle" depart="0.00" fromTaz="2" toTaz="1">
        <route edges="1188035 1255471 2842000 1062925 1062939 2020471 1517139 1743656"/>
    </vehicle>
    <vehicle id="t_2_to_3" type="taz_vehicle" depart="0.00" fromTaz="2" toTaz="3">
        <route edges="1062792 1255432 1071243 1071244 1016652 1020174"/>
    </vehicle>
    <vehicle id="t_2_to_4" type="taz_vehicle" depart="0.00" fromTaz="2" toTaz="4">
        <route edges="1062792 1255432 1071243 1071244 1016652 1016653 1016654 1016657 1949247 1975644 1975659 1975655 1975654 1716793"/>
    </vehicle>
    <vehicle id="t_2_to_5" type="taz_vehicle" depart="0.00" fromTaz="2" toTaz="5">
        <route edges="1062792 1255432 1071243 1071244 1016652 1016653 1016654 1949244 1949245 1051020 1054906 1523228"/>
    </vehicle>
    <vehicle id="t_2_to_6" type="taz_vehicle" depart="0.00" fromTaz="2" toTaz="6">
        <route edges="1062792 1255432 1071243 1071244 1016652 1016653 1016654 1949244 1949245 1051020 1051021 1051022 1051023 1062317"/>
    </vehicle>
    <vehicle id="t_2_to_7" type="taz_vehicle" depart="0.00" fromTaz="2" toTaz="7">
        <route edges="1062792 1255432 1071243 1071244 1016652 1016653 1016654 1949244 1949245 1051020 1051021 1051022 1051023 1062755 1062241 1063338"/>
    </vehicle>
    <vehicle id="t_2_to_8" type="taz_vehicle" depart="0.00" fromTaz="2" toTaz="8">
        <route edges="1062792 1255432 1071243 1071244 1016652 1016653 1016654 1949244 1949245 1051020 1051021 1051022 1051023 1062755 1062241 1063512 1051041 1063684 1050193 1019714 1019715 1411565 1177267"/>
    </vehicle>
    <vehicle id="t_2_to_9" type="taz_vehicle" depart="0.00" fromTaz="2" toTaz="9">
        <route edges="1062792 1255432 1071243 1071244 1016652 1016653 1016654 1949244 1949245 1051020 1051021 1051022 1051023 1062755 1062241 1063512 1051041 1063684 1050193 1019714 1019715 1411565 1411566 1177259 1969029 1969025"/>
    </vehicle>
    <vehicle id="t_2_to_10" type="taz_vehicle" depart="0.00" fromTaz="2" toTaz="10">
        <route edges="1062792 1255432 1071243 1071244 1016652 1016653 1016654 1949244 1949245 1051020 1051021 1051022 1051023 1062755 1062241 1063512 1051041 1019717 1019709 1019710"/>
    </vehicle>
    <vehicle id="t_2_to_11" type="taz_vehicle" depart="0.00" fromTaz="2" toTaz="11">
        <route edges="1062792 1255432 1071243 1071244 1016652 1016653 1016654 1949244 1949245 1051020 1051021 1051022 1051023 1062755 1062241 1063512 1051041 1063684 1051045 1051046 1051047 1051051 1051053 1972190 1051058 2011026 1189895 1051063 1401531"/>
    </vehicle>
    <vehicle id="t_2_to_12" type="taz_vehicle" depart="0.00" fromTaz="2" toTaz="12">
        <route edges="1062792 1255432 1071243 1071244 1016652 1016653 1016654 1949244 1949245 1051020 1051021 1051022 1051023 1062755 1062241 1063512 1051041 1063684 1051045 1051046 1051047 1051051 1051053 1972190 1051058 2011026 1189895 1051063 2011010 2011017 1051100 1051126 1036159"/>
    </vehicle>
    <vehicle id="t_2_to_13" type="taz_vehicle" depart="0.00" fromTaz="2" toTaz="13">
        <route edges="1062792 1255432 1071243 1071244 1016652 1016653 1016654 1949244 1949245 1051020 1051021 1051022 1051023 1062755 1062241 1063512 1051041 1063684 1051045 1051046 1051047 1051051 1051053 1972190 1051058 2011026 1189895 1051063 2011010 2011017 1051100 1051126 1051128 2011021 1398756"/>
    </vehicle>
    <vehicle id="t_2_to_14" type="taz_vehicle" depart="0.00" fromTaz="2" toTaz="14">
        <route edges="1062792 1255432 1071243 1071244 1016652 1016653 1016654 1949244 1949245 1051020 1051021 1051022 1051023 1062755 1062241 1063512 1051041 1063684 1051045 1051046 1051047 1051051 1051053 1972190 1051058 2011026 1189895 1051063 2011010 2011017 1051100 1051126 1051128 2011021 2011014 1398689"/>
    </vehicle>
    <vehicle id="t_2_to_15" type="taz_vehicle" depart="0.00" fromTaz="2" toTaz="15">
        <route edges="1062792 1255432 1071243 1071244 1016652 1016653 1016654 1949244 1949245 1051020 1051021 1051022 1051023 1062755 1062241 1063512 1051041 1063684 1051045 1051046 1051047 1051051 1051053 1019992 2027240 1401537"/>
    </vehicle>
    <vehicle id="t_2_to_16" type="taz_vehicle" depart="0.00" fromTaz="2" toTaz="16">
        <route edges="1062792 1255432 1071243 1071244 1016652 1016653 1016654 1949244 1949245 1051020 1051021 1051022 1051023 1062755 1062241 1063512 1051041 1063684 1051045 1051046 1051047 1051051 1051053 1019992 2027240 1189956 1401468 1401469 1175992 1203952"/>
    </vehicle>
    <vehicle id="t_2_to_17" type="taz_vehicle" depart="0.00" fromTaz="2" toTaz="17">
        <route edges="1188035 1255471 2842000 1062925 1062939 2020466 2020444 1250859 1254015 1254016 1254017 1254018 1254019 1122619 1122620 1074109 1074110 1214189 1214190 1181551 2028954 1016680 1405108 1269427 1181482 1181483 1181484 1181485 1935065"/>
    </vehicle>
    <vehicle id="t_2_to_18" type="taz_vehicle" depart="0.00" fromTaz="2" toTaz="18">
        <route edges="1188035 1255471 2842000 1062925 1062939 2020466 2020444 1250859 1254015 1254016 1254017 1254018 1254019 1122619 1122620 1074109 1074110 1214189 1214190 1181551 2028954 1016680 1405108 1269427 1181482 1181483 1215220 1215221"/>
    </vehicle>
    <vehicle id="t_2_to_19" type="taz_vehicle" depart="0.00" fromTaz="2" toTaz="19">
        <route edges="1188035 1255471 2842000 1062925 1062939 2020466 2020444 1250859 1254015 1254016 1254017 1254018 1254019 1122619 1122620 1074109 1074110 1214189 1214190 1181551 2028954 1016680 1016681 1016682 1401516 1401517"/>
    </vehicle>
    <vehicle id="t_2_to_20" type="taz_vehicle" depart="0.00" fromTaz="2" toTaz="20">
        <route edges="1188035 1255471 2842000 1062925 1062939 2020466 2020444 1250859 1254015 1254016 1254017 1254018 1254019 1122619 1122620 1074109 1074110 1214189 1214190 1181551 2028954 1016680 1016681 1016682 1181543"/>
    </vehicle>
    <vehicle id="t_2_to_21" type="taz_vehicle" depart="0.00" fromTaz="2" toTaz="21">
        <route edges="1188035 1255471 2842000 1062925 1062939 2020466 2020444 1250859 1254015 1254016 1254017 1254018 1254019 1122619 1122620 1074109 1074110 1214189 1214190 1181551 1036157 1135403 1135405"/>
    </vehicle>
    <vehicle id="t_2_to_22" type="taz_vehicle" depart="0.00" fromTaz="2" toTaz="22">
        <route edges="1188035 1255471 2842000 1062925 1062939 2020466 2020444 1250859 1254015 1254016 1254017 1254018 1254019 1122619 1122620 1074109 1074110 1111488"/>
    </vehicle>
    <vehicle id="t_2_to_23" type="taz_vehicle" depart="0.00" fromTaz="2" toTaz="23">
        <route edges="1188035 1255471 2842000 1062925 1062939 2020466 2020444 1250859 1254015 1254016 1254017 1254018 1254019 1122619 1122620 1210226"/>
    </vehicle>
    <vehicle id="t_2_to_24" type="taz_vehicle" depart="0.00" fromTaz="2" toTaz="24">
        <route edges="1188035 1255471 2842000 1062925 1062939 2020466 2020444 1250859 1254015 1254016 1254017 1254018 1254019 1019569"/>
    </vehicle>
    <vehicle id="t_2_to_25" type="taz_vehicle" depart="0.00" fromTaz="2" toTaz="25">
        <route edges="1188035 1255471 2842000 1062925 1062939 2020466 2020444 1250859 1254015 1254016 1254017 1020029"/>
    </vehicle>
    <vehicle id="t_2_to_26" type="taz_vehicle" depart="0.00" fromTaz="2" toTaz="26">
        <route edges="1188035 1255471 2842000 1062925 1062939 2020466 2020444 1250859 1254015 1020046"/>
    </vehicle>
    <vehicle id="t_3_to_1" type="taz_vehicle" depart="0.00" fromTaz="3" toTaz="1">
        <route edges="1020167 1051027 1051029 1071245 1062924 1062925 1062939 2020471 1517139 1743656"/>
    </vehicle>
    <vehicle id="t_3_to_2" type="taz_vehicle" depart="0.00" fromTaz="3" toTaz="2">
        <route edges="1020167 1051027 1051029 1016650 1888722 1888721 1062795 1767911"/>
    </vehicle>
    <vehicle id="t_3_to_4" type="taz_vehicle" depart="0.00" fromTaz="3" toTaz="4">
        <route edges="1768757 1016654 1016657 1949247 1975644 1975659 1975655 1975654 1716793"/>
    </vehicle>
    <vehicle id="t_3_to_5" type="taz_vehicle" depart="0.00" fromTaz="3" toTaz="5">
        <route edges="1768757 1016654 1949244 1949245 1051020 1054906 1523228"/>
    </vehicle>
    <vehicle id="t_3_to_6" type="taz_vehicle" depart="0.00" fromTaz="3" toTaz="6">
        <route edges="1768757 1016654 1949244 1949245 1051020 1051021 1051022 1051023 1062317"/>
    </vehicle>
    <vehicle id="t_3_to_7" type="taz_vehicle" depart="0.00" fromTaz="3" toTaz="7">
        <route edges="1768757 1016654 1949244 1949245 1051020 1051021 1051022 1051023 1062755 1062241 1063338"/>
    </vehicle>
    <vehicle id="t_3_to_8" type="taz_vehicle" depart="0.00" fromTaz="3" toTaz="8">
        <route edges="1768757 1016654 1949244 1949245 1051020 1051021 1051022 1051023 1062755 1062241 1063512 1051041 1063684 1050193 1019714 1019715 1411565 1177267"/>
    </vehicle>
    <vehicle id="t_3_to_9" type="taz_vehicle" depart="0.00" fromTaz="3" toTaz="9">
        <route edges="1768757 1016654 1949244 1949245 1051020 1051021 1051022 1051023 1062755 1062241 1063512 1051041 1063684 1050193 1019714 1019715 1411565 1411566 1177259 1969029 1969025"/>
    </vehicle>
    <vehicle id="t_3_to_10" type="taz_vehicle" depart="0.00" fromTaz="3" toTaz="10">
        <route edges="1768757 1016654 1949244 1949245 1051020 1051021 1051022 1051023 1062755 1062241 1063512 1051041 1019717 1019709 1019710"/>
    </vehicle>
    <vehicle id="t_3_to_11" type="taz_vehicle" depart="0.00" fromTaz="3" toTaz="11">
        <route edges="1768757 1016654 1949244 1949245 1051020 1051021 1051022 1051023 1062755 1062241 1063512 1051041 1063684 1051045 1051046 1051047 1051051 1051053 1972190 1051058 2011026 1189895 1051063 1401531"/>
    </vehicle>
    <vehicle id="t_3_to_12" type="taz_vehicle" depart="0.00" fromTaz="3" toTaz="12">
        <route edges="1768757 1016654 1949244 1949245 1051020 1051021 1051022 1051023 1062755 1062241 1063512 1051041 1063684 1051045 1051046 1051047 1051051 1051053 1972190 1051058 2011026 1189895 1051063 2011010 2011017 1051100 1051126 1036159"/>
    </vehicle>
    <vehicle id="t_3_to_13" type="taz_vehicle" depart="0.00" fromTaz="3" toTaz="13">
        <route edges="1768757 1016654 1949244 1949245 1051020 1051021 1051022 1051023 1062755 1062241 1063512 1051041 1063684 1051045 1051046 1051047 1051051 1051053 1972190 1051058 2011026 1189895 1051063 2011010 2011017 1051100 1051126 1051128 2011021 1398756"/>
    </vehicle>
    <vehicle id="t_3_to_14" type="taz_vehicle" depart="0.00" fromTaz="3" toTaz="14">
        <route edges="1768757 1016654 1949244 1949245 1051020 1051021 1051022 1051023 1062755 1062241 1063512 1051041 1063684 1051045 1051046 1051047 1051051 1051053 1972190 1051058 2011026 1189895 1051063 2011010 2011017 1051100 1051126 1051128 2011021 2011014 1398689"/>
    </vehicle>
    <vehicle id="t_3_to_15" type="taz_vehicle" depart="0.00" fromTaz="3" toTaz="15">
        <route edges="1768757 1016654 1949244 1949245 1051020 1051021 1051022 1051023 1062755 1062241 1063512 1051041 1063684 1051045 1051046 1051047 1051051 1051053 1019992 2027240 1401537"/>
    </vehicle>
    <vehicle id="t_3_to_16" type="taz_vehicle" depart="0.00" fromTaz="3" toTaz="16">
        <route edges="1768757 1016654 1949244 1949245 1051020 1051021 1051022 1051023 1062755 1062241 1063512 1051041 1063684 1051045 1051046 1051047 1051051 1051053 1019992 2027240 1189956 1401468 1401469 1175992 1203952"/>
    </vehicle>
    <vehicle id="t_3_to_17" type="taz_vehicle" depart="0.00" fromTaz="3" toTaz="17">
        <route edges="1768757 1016654 1949244 1949245 1051020 1051021 1051022 1051023 1062755 1062241 1063512 1051041 1063684 1051045 1051046 1051047 1051051 1051053 1019992 2027240 1189956 1401468 1401469 1175992 1176007 1176008 1175978 1175979 1111268 1111269"/>
    </vehicle>
    <vehicle id="t_3_to_18" type="taz_vehicle" depart="0.00" fromTaz="3" toTaz="18">
        <route edges="1768757 1016654 1949244 1949245 1051020 1051021 1051022 1051023 1062755 1062241 1063512 1051041 1063684 1051045 1051046 1051047 1051051 1051053 1019992 2027240 1189956 1401468 1401469 1175992 1176007 1176008 1175978 1175979 1175973 1175974 1188042 1187994 1215352"/>
    </vehicle>
    <vehicle id="t_3_to_19" type="taz_vehicle" depart="0.00" fromTaz="3" toTaz="19">
        <route edges="1020167 1051027 1051029 1071245 1062924 1062925 1062939 2020466 2020444 1250859 1254015 1254016 1254017 1254018 1254019 1122619 1122620 1074109 1074110 1214189 1214190 1181551 2028954 1016680 1016681 1016682 1401516 1401517"/>
    </vehicle>
    <vehicle id="t_3_to_20" type="taz_vehicle" depart="0.00" fromTaz="3" toTaz="20">
        <route edges="1020167 1051027 1051029 1071245 1062924 1062925 1062939 2020466 2020444 1250859 1254015 1254016 1254017 1254018 1254019 1122619 1122620 1074109 1074110 1214189 1214190 1181551 2028954 1016680 1016681 1016682 1181543"/>
    </vehicle>
    <vehicle id="t_3_to_21" type="taz_vehicle" depart="0.00" fromTaz="3" toTaz="21">
        <route edges="1020167 1051027 1051029 1071245 1062924 1062925 1062939 2020466 2020444 1250859 1254015 1254016 1254017 1254018 1254019 1122619 1122620 1074109 1074110 1214189 1214190 1181551 1036157 1135403 1135405"/>
    </vehicle>
    <vehicle id="t_3_to_22" type="taz_vehicle" depart="0.00" fromTaz="3" toTaz="22">
        <route edges="1020167 1051027 1051029 1071245 1062924 1062925 1062939 2020466 2020444 1250859 1254015 1254016 1254017 1254018 1254019 1122619 1122620 1074109 1074110 1111488"/>
    </vehicle>
    <vehicle id="t_3_to_23" type="taz_vehicle" depart="0.00" fromTaz="3" toTaz="23">
        <route edges="1020167 1051027 1051029 1071245 1062924 1062925 1062939 2020466 2020444 1250859 1254015 1254016 1254017 1254018 1254019 1122619 1122620 1210226"/>
    </vehicle>
    <vehicle id="t_3_to_24" type="taz_vehicle" depart="0.00" fromTaz="3" toTaz="24">
        <route edges="1020167 1051027 1051029 1071245 1062924 1062925 1062939 2020466 2020444 1250859 1254015 1254016 1254017 1254018 1254019 1019569"/>
    </vehicle>
    <vehicle id="t_3_to_25" type="taz_vehicle" depart="0.00" fromTaz="3" toTaz="25">
        <route edges="1020167 1051027 1051029 1071245 1062924 1062925 1062939 2020466 2020444 1250859 1254015 1254016 1254017 1020029"/>
    </vehicle>
    <vehicle id="t_3_to_26" type="taz_vehicle" depart="0.00" fromTaz="3" toTaz="26">
        <route edges="1020167 1051027 1051029 1071245 1062924 1062925 1062939 2020466 2020444 1250859 1254015 1020046"/>
    </vehicle>
    <vehicle id="t_4_to_1" type="taz_vehicle" depart="0.00" fromTaz="4" toTaz="1">
        <route edges="1975749 1975656 1975657 1975652 1975651 1975645 1016660 2842002 1051025 1051026 1051027 1051029 1071245 1062924 1062925 1062939 2020471 1517139 1743656"/>
    </vehicle>
    <vehicle id="t_4_to_2" type="taz_vehicle" depart="0.00" fromTaz="4" toTaz="2">
        <route edges="1975749 1975656 1975657 1975652 1975651 1975645 1016660 2842002 1051025 1051026 1051027 1051029 1016650 1888722 1888721 1062795 1767911"/>
    </vehicle>
    <vehicle id="t_4_to_3" type="taz_vehicle" depart="0.00" fromTaz="4" toTaz="3">
        <route edges="1975749 1975656 1975657 1975652 1975651 1975645 1016660 2842002 1051025 1020171"/>
    </vehicle>
    <vehicle id="t_4_to_5" type="taz_vehicle" depart="0.00" fromTaz="4" toTaz="5">
        <route edges="1975749 1975656 1975657 1975652 1975651 1975645 1016659 1975646 1949246 1949245 1051020 1054906 1523228"/>
    </vehicle>
    <vehicle id="t_4_to_6" type="taz_vehicle" depart="0.00" fromTaz="4" toTaz="6">
        <route edges="1975749 1975656 1975657 1975652 1975651 1975645 1016659 1975646 1949246 1949245 1051020 1051021 1051022 1051023 1062317"/>
    </vehicle>
    <vehicle id="t_4_to_7" type="taz_vehicle" depart="0.00" fromTaz="4" toTaz="7">
        <route edges="1975749 1975656 1975657 1975652 1975651 1975645 1016659 1975646 1949246 1949245 1051020 1051021 1051022 1051023 1062755 1062241 1063338"/>
    </vehicle>
    <vehicle id="t_4_to_8" type="taz_vehicle" depart="0.00" fromTaz="4" toTaz="8">
        <route edges="1975749 1975656 1975657 1975652 1975651 1975645 1016659 1975646 1949246 1949245 1051020 1051021 1051022 1051023 1062755 1062241 1063512 1051041 1063684 1050193 1019714 1019715 1411565 1177267"/>
    </vehicle>
    <vehicle id="t_4_to_9" type="taz_vehicle" depart="0.00" fromTaz="4" toTaz="9">
        <route edges="1975749 1975656 1975657 1975652 1975651 1975645 1016659 1975646 1949246 1949245 1051020 1051021 1051022 1051023 1062755 1062241 1063512 1051041 1063684 1050193 1019714 1019715 1411565 1411566 1177259 1969029 1969025"/>
    </vehicle>
    <vehicle id="t_4_to_10" type="taz_vehicle" depart="0.00" fromTaz="4" toTaz="10">
        <route edges="1975749 1975656 1975657 1975652 1975651 1975645 1016659 1975646 1949246 1949245 1051020 1051021 1051022 1051023 1062755 1062241 1063512 1051041 1019717 1019709 1019710"/>
    </vehicle>
    <vehicle id="t_4_to_11" type="taz_vehicle" depart="0.00" fromTaz="4" toTaz="11">
        <route edges="1975749 1975656 1975657 1975652 1975651 1975645 1016659 1975646 1949246 1949245 1051020 1051021 1051022 1051023 1062755 1062241 1063512 1051041 1063684 1051045 1051046 1051047 1051051 1051053 1972190 1051058 2011026 1189895 1051063 1401531"/>
    </vehicle>
    <vehicle id="t_4_to_12" type="taz_vehicle" depart="0.00" fromTaz="4" toTaz="12">
        <route edges="1975749 1975656 1975657 1975652 1975651 1975645 1016659 1975646 1949246 1949245 1051020 1051021 1051022 1051023 1062755 1062241 1063512 1051041 1063684 1051045 1051046 1051047 1051051 1051053 1972190 1051058 2011026 1189895 1051063 2011010 2011017 1051100 1051126 1036159"/>
    </vehicle>
    <vehicle id="t_4_to_13" type="taz_vehicle" depart="0.00" fromTaz="4" toTaz="13">
        <route edges="1975749 1975656 1975657 1975652 1975651 1975645 1016659 1975646 1949246 1949245 1051020 1051021 1051022 1051023 1062755 1062241 1063512 1051041 1063684 1051045 1051046 1051047 1051051 1051053 1972190 1051058 2011026 1189895 1051063 2011010 2011017 1051100 1051126 1051128 2011021 1398756"/>
    </vehicle>
    <vehicle id="t_4_to_14" type="taz_vehicle" depart="0.00" fromTaz="4" toTaz="14">
        <route edges="1975749 1975656 1975657 1975652 1975651 1975645 1016659 1975646 1949246 1949245 1051020 1051021 1051022 1051023 1062755 1062241 1063512 1051041 1063684 1051045 1051046 1051047 1051051 1051053 1972190 1051058 2011026 1189895 1051063 2011010 2011017 1051100 1051126 1051128 2011021 2011014 1398689"/>
    </vehicle>
    <vehicle id="t_4_to_15" type="taz_vehicle" depart="0.00" fromTaz="4" toTaz="15">
        <route edges="1975749 1975656 1975657 1975652 1975651 1975645 1016659 1975646 1949246 1949245 1051020 1051021 1051022 1051023 1062755 1062241 1063512 1051041 1063684 1051045 1051046 1051047 1051051 1051053 1019992 2027240 1401537"/>
    </vehicle>
    <vehicle id="t_4_to_16" type="taz_vehicle" depart="0.00" fromTaz="4" toTaz="16">
        <route edges="1975749 1975656 1975657 1975652 1975651 1975645 1016659 1975646 1949246 1949245 1051020 1051021 1051022 1051023 1062755 1062241 1063512 1051041 1063684 1051045 1051046 1051047 1051051 1051053 1019992 2027240 1189956 1401468 1401469 1175992 1203952"/>
    </vehicle>
    <vehicle id="t_4_to_17" type="taz_vehicle" depart="0.00" fromTaz="4" toTaz="17">
        <route edges="1975749 1975656 1975657 1975652 1975651 1975645 1016659 1975646 1949246 1949245 1051020 1051021 1051022 1051023 1062755 1062241 1063512 1051041 1063684 1051045 1051046 1051047 1051051 1051053 1019992 2027240 1189956 1401468 1401469 1175992 1176007 1176008 1175978 1175979 1111268 1111269"/>
    </vehicle>
    <vehicle id="t_4_to_18" type="taz_vehicle" depart="0.00" fromTaz="4" toTaz="18">
        <route edges="1975749 1975656 1975657 1975652 1975651 1975645 1016659 1975646 1949246 1949245 1051020 1051021 1051022 1051023 1062755 1062241 1063512 1051041 1063684 1051045 1051046 1051047 1051051 1051053 1019992 2027240 1189956 1401468 1401469 1175992 1176007 1176008 1175978 1175979 1175973 1175974 1188042 1187994 1215352"/>
    </vehicle>
    <vehicle id="t_4_to_19" type="taz_vehicle" depart="0.00" fromTaz="4" toTaz="19">
        <route edges="1975749 1975656 1975657 1975652 1975651 1975645 1016660 2842002 1051025 1051026 1051027 1051029 1071245 1062924 1062925 1062939 2020466 2020444 1250859 1254015 1254016 1254017 1254018 1254019 1122619 1122620 1074109 1074110 1214189 1214190 1181551 2028954 1016680 1016681 1016682 1401516 1401517"/>
    </vehicle>
    <vehicle id="t_4_to_20" type="taz_vehicle" depart="0.00" fromTaz="4" toTaz="20">
        <route edges="1975749 1975656 1975657 1975652 1975651 1975645 1016660 2842002 1051025 1051026 1051027 1051029 1071245 1062924 1062925 1062939 2020466 2020444 1250859 1254015 1254016 1254017 1254018 1254019 1122619 1122620 1074109 1074110 1214189 1214190 1181551 2028954 1016680 1016681 1016682 1181543"/>
    </vehicle>
    <vehicle id="t_4_to_21" type="taz_vehicle" depart="0.00" fromTaz="4" toTaz="21">
        <route edges="1975749 1975656 1975657 1975652 1975651 1975645 1016659 1975646 1949246 1949245 1051020 1051021 1051022 1051023 1062755 1062241 1063512 1051041 1063684 1051045 1051046 1051047 1051051 1051053 1019992 2027240 1189956 1401468 1401469 1175992 1176007 1176008 1175978 1175979 1175973 1175974 1188042 1187994 1187995 1187966 1038027 1181489 1181481 1135403 1135405"/>
    </vehicle>
    <vehicle id="t_4_to_22" type="taz_vehicle" depart="0.00" fromTaz="4" toTaz="22">