<routes>
    <vType id="taz_vehicle" vClass="passenger"/>
    <trip id="t_1_to_2" type="taz_vehicle" fromTaz="1" toTaz="2" depart="0" />
    <trip id="t_1_to_3" type="taz_vehicle" fromTaz="1" toTaz="3" depart="0" />
    <trip id="t_1_to_4" type="taz_vehicle" fromTaz="1" toTaz="4" depart="0" />
    <trip id="t_1_to_5" type="taz_vehicle" fromTaz="1" toTaz="5" depart="0" />
    <trip id="t_1_to_6" type="taz_vehicle" fromTaz="1" toTaz="6" depart="0" />
    <trip id="t_1_to_7" type="taz_vehicle" fromTaz="1" toTaz="7" depart="0" />
    <trip id="t_1_to_8" type="taz_vehicle" fromTaz="1" toTaz="8" depart="0" />
    <trip id="t_1_to_9" type="taz_vehicle" fromTaz="1" toTaz="9" depart="0" />
    <trip id="t_1_to_10" type="taz_vehicle" fromTaz="1" toTaz="10" depart="0" />
    <trip id="t_1_to_11" type="taz_vehicle" fromTaz="1" toTaz="11" depart="0" />
    <trip id="t_1_to_12" type="taz_vehicle" fromTaz="1" toTaz="12" depart="0" />
    <trip id="t_1_to_13" type="taz_vehicle" fromTaz="1" toTaz="13" depart="0" />
    <trip id="t_1_to_14" type="taz_vehicle" fromTaz="1" toTaz="14" depart="0" />
    <trip id="t_1_to_15" type="taz_vehicle" fromTaz="1" toTaz="15" depart="0" />
    <trip id="t_1_to_16" type="taz_vehicle" fromTaz="1" toTaz="16" depart="0" />
    <trip id="t_1_to_17" type="taz_vehicle" fromTaz="1" toTaz="17" depart="0" />
    <trip id="t_1_to_18" type="taz_vehicle" fromTaz="1" toTaz="18" depart="0" />
    <trip id="t_1_to_19" type="taz_vehicle" fromTaz="1" toTaz="19" depart="0" />
    <trip id="t_1_to_20" type="taz_vehicle" fromTaz="1" toTaz="20" depart="0" />
    <trip id="t_1_to_21" type="taz_vehicle" fromTaz="1" toTaz="21" depart="0" />
    <trip id="t_1_to_22" type="taz_vehicle" fromTaz="1" toTaz="22" depart="0" />
    <trip id="t_1_to_23" type="taz_vehicle" fromTaz="1" toTaz="23" depart="0" />
    <trip id="t_1_to_24" type="taz_vehicle" fromTaz="1" toTaz="24" depart="0" />
    <trip id="t_1_to_25" type="taz_vehicle" fromTaz="1" toTaz="25" depart="0" />
    <trip id="t_1_to_26" type="taz_vehicle" fromTaz="1" toTaz="26" depart="0" />
    <trip id="t_2_to_1" type="taz_vehicle" fromTaz="2" toTaz="1" depart="0" />
    <trip id="t_2_to_3" type="taz_vehicle" fromTaz="2" toTaz="3" depart="0" />
    <trip id="t_2_to_4" type="taz_vehicle" fromTaz="2" toTaz="4" depart="0" />
    <trip id="t_2_to_5" type="taz_vehicle" fromTaz="2" toTaz="5" depart="0" />
    <trip id="t_2_to_6" type="taz_vehicle" fromTaz="2" toTaz="6" depart="0" />
    <trip id="t_2_to_7" type="taz_vehicle" fromTaz="2" toTaz="7" depart="0" />
    <trip id="t_2_to_8" type="taz_vehicle" fromTaz="2" toTaz="8" depart="0" />
    <trip id="t_2_to_9" type="taz_vehicle" fromTaz="2" toTaz="9" depart="0" />
    <trip id="t_2_to_10" type="taz_vehicle" fromTaz="2" toTaz="10" depart="0" />
    <trip id="t_2_to_11" type="taz_vehicle" fromTaz="2" toTaz="11" depart="0" />
    <trip id="t_2_to_12" type="taz_vehicle" fromTaz="2" toTaz="12" depart="0" />
    <trip id="t_2_to_13" type="taz_vehicle" fromTaz="2" toTaz="13" depart="0" />
    <trip id="t_2_to_14" type="taz_vehicle" fromTaz="2" toTaz="14" depart="0" />
    <trip id="t_2_to_15" type="taz_vehicle" fromTaz="2" toTaz="15" depart="0" />
    <trip id="t_2_to_16" type="taz_vehicle" fromTaz="2" toTaz="16" depart="0" />
    <trip id="t_2_to_17" type="taz_vehicle" fromTaz="2" toTaz="17" depart="0" />
    <trip id="t_2_to_18" type="taz_vehicle" fromTaz="2" toTaz="18" depart="0" />
    <trip id="t_2_to_19" type="taz_vehicle" fromTaz="2" toTaz="19" depart="0" />
    <trip id="t_2_to_20" type="taz_vehicle" fromTaz="2" toTaz="20" depart="0" />
    <trip id="t_2_to_21" type="taz_vehicle" fromTaz="2" toTaz="21" depart="0" />
    <trip id="t_2_to_22" type="taz_vehicle" fromTaz="2" toTaz="22" depart="0" />
    <trip id="t_2_to_23" type="taz_vehicle" fromTaz="2" toTaz="23" depart="0" />
    <trip id="t_2_to_24" type="taz_vehicle" fromTaz="2" toTaz="24" depart="0" />
    <trip id="t_2_to_25" type="taz_vehicle" fromTaz="2" toTaz="25" depart="0" />
    <trip id="t_2_to_26" type="taz_vehicle" fromTaz="2" toTaz="26" depart="0" />
    <trip id="t_3_to_1" type="taz_vehicle" fromTaz="3" toTaz="1" depart="0" />
    <trip id="t_3_to_2" type="taz_vehicle" fromTaz="3" toTaz="2" depart="0" />
    <trip id="t_3_to_4" type="taz_vehicle" fromTaz="3" toTaz="4" depart="0" />
    <trip id="t_3_to_5" type="taz_vehicle" fromTaz="3" toTaz="5" depart="0" />
    <trip id="t_3_to_6" type="taz_vehicle" fromTaz="3" toTaz="6" depart="0" />
    <trip id="t_3_to_7" type="taz_vehicle" fromTaz="3" toTaz="7" depart="0" />
    <trip id="t_3_to_8" type="taz_vehicle" fromTaz="3" toTaz="8" depart="0" />
    <trip id="t_3_to_9" type="taz_vehicle" fromTaz="3" toTaz="9" depart="0" />
    <trip id="t_3_to_10" type="taz_vehicle" fromTaz="3" toTaz="10" depart="0" />
    <trip id="t_3_to_11" type="taz_vehicle" fromTaz="3" toTaz="11" depart="0" />
    <trip id="t_3_to_12" type="taz_vehicle" fromTaz="3" toTaz="12" depart="0" />
    <trip id="t_3_to_13" type="taz_vehicle" fromTaz="3" toTaz="13" depart="0" />
    <trip id="t_3_to_14" type="taz_vehicle" fromTaz="3" toTaz="14" depart="0" />
    <trip id="t_3_to_15" type="taz_vehicle" fromTaz="3" toTaz="15" depart="0" />
    <trip id="t_3_to_16" type="taz_vehicle" fromTaz="3" toTaz="16" depart="0" />
    <trip id="t_3_to_17" type="taz_vehicle" fromTaz="3" toTaz="17" depart="0" />
    <trip id="t_3_to_18" type="taz_vehicle" fromTaz="3" toTaz="18" depart="0" />
    <trip id="t_3_to_19" type="taz_vehicle" fromTaz="3" toTaz="19" depart="0" />
    <trip id="t_3_to_20" type="taz_vehicle" fromTaz="3" toTaz="20" depart="0" />
    <trip id="t_3_to_21" type="taz_vehicle" fromTaz="3" toTaz="21" depart="0" />
    <trip id="t_3_to_22" type="taz_vehicle" fromTaz="3" toTaz="22" depart="0" />
    <trip id="t_3_to_23" type="taz_vehicle" fromTaz="3" toTaz="23" depart="0" />
    <trip id="t_3_to_24" type="taz_vehicle" fromTaz="3" toTaz="24" depart="0" />
    <trip id="t_3_to_25" type="taz_vehicle" fromTaz="3" toTaz="25" depart="0" />
    <trip id="t_3_to_26" type="taz_vehicle" fromTaz="3" toTaz="26" depart="0" />
    <trip id="t_4_to_1" type="taz_vehicle" fromTaz="4" toTaz="1" depart="0" />
    <trip id="t_4_to_2" type="taz_vehicle" fromTaz="4" toTaz="2" depart="0" />
    <trip id="t_4_to_3" type="taz_vehicle" fromTaz="4" toTaz="3" depart="0" />
    <trip id="t_4_to_5" type="taz_vehicle" fromTaz="4" toTaz="5" depart="0" />
    <trip id="t_4_to_6" type="taz_vehicle" fromTaz="4" toTaz="6" depart="0" />
    <trip id="t_4_to_7" type="taz_vehicle" fromTaz="4" toTaz="7" depart="0" />
    <trip id="t_4_to_8" type="taz_vehicle" fromTaz="4" toTaz="8" depart="0" />
    <trip id="t_4_to_9" type="taz_vehicle" fromTaz="4" toTaz="9" depart="0" />
    <trip id="t_4_to_10" type="taz_vehicle" fromTaz="4" toTaz="10" depart="0" />
    <trip id="t_4_to_11" type="taz_vehicle" fromTaz="4" toTaz="11" depart="0" />
    <trip id="t_4_to_12" type="taz_vehicle" fromTaz="4" toTaz="12" depart="0" />
    <trip id="t_4_to_13" type="taz_vehicle" fromTaz="4" toTaz="13" depart="0" />
    <trip id="t_4_to_14" type="taz_vehicle" fromTaz="4" toTaz="14" depart="0" />
    <trip id="t_4_to_15" type="taz_vehicle" fromTaz="4" toTaz="15" depart="0" />
    <trip id="t_4_to_16" type="taz_vehicle" fromTaz="4" toTaz="16" depart="0" />
    <trip id="t_4_to_17" type="taz_vehicle" fromTaz="4" toTaz="17" depart="0" />
    <trip id="t_4_to_18" type="taz_vehicle" fromTaz="4" toTaz="18" depart="0" />
    <trip id="t_4_to_19" type="taz_vehicle" fromTaz="4" toTaz="19" depart="0" />
    <trip id="t_4_to_20" type="taz_vehicle" fromTaz="4" toTaz="20" depart="0" />
    <trip id="t_4_to_21" type="taz_vehicle" fromTaz="4" toTaz="21" depart="0" />
    <trip id="t_4_to_22" type="taz_vehicle" fromTaz="4" toTaz="22" depart="0" />
    <trip id="t_4_to_23" type="taz_vehicle" fromTaz="4" toTaz="23" depart="0" />
    <trip id="t_4_to_24" type="taz_vehicle" fromTaz="4" toTaz="24" depart="0" />
    <trip id="t_4_to_25" type="taz_vehicle" fromTaz="4" toTaz="25" depart="0" />
    <trip id="t_4_to_26" type="taz_vehicle" fromTaz="4" toTaz="26" depart="0" />
    <trip id="t_5_to_1" type="taz_vehicle" fromTaz="5" toTaz="1" depart="0" />
    <trip id="t_5_to_2" type="taz_vehicle" fromTaz="5" toTaz="2" depart="0" />
    <trip id="t_5_to_3" type="taz_vehicle" fromTaz="5" toTaz="3" depart="0" />
    <trip id="t_5_to_4" type="taz_vehicle" fromTaz="5" toTaz="4" depart="0" />
    <trip id="t_5_to_6" type="taz_vehicle" fromTaz="5" toTaz="6" depart="0" />
    <trip id="t_5_to_7" type="taz_vehicle" fromTaz="5" toTaz="7" depart="0" />
    <trip id="t_5_to_8" type="taz_vehicle" fromTaz="5" toTaz="8" depart="0" />
    <trip id="t_5_to_9" type="taz_vehicle" fromTaz="5" toTaz="9" depart="0" />
    <trip id="t_5_to_10" type="taz_vehicle" fromTaz="5" toTaz="10" depart="0" />
    <trip id="t_5_to_11" type="taz_vehicle" fromTaz="5" toTaz="11" depart="0" />
    <trip id="t_5_to_12" type="taz_vehicle" fromTaz="5" toTaz="12" depart="0" />
    <trip id="t_5_to_13" type="taz_vehicle" fromTaz="5" toTaz="13" depart="0" />
    <trip id="t_5_to_14" type="taz_vehicle" fromTaz="5" toTaz="14" depart="0" />
    <trip id="t_5_to_15" type="taz_vehicle" fromTaz="5" toTaz="15" depart="0" />
    <trip id="t_5_to_16" type="taz_vehicle" fromTaz="5" toTaz="16" depart="0" />
    <trip id="t_5_to_17" type="taz_vehicle" fromTaz="5" toTaz="17" depart="0" />
    <trip id="t_5_to_18" type="taz_vehicle" fromTaz="5" toTaz="18" depart="0" />
    <trip id="t_5_to_19" type="taz_vehicle" fromTaz="5" toTaz="19" depart="0" />
    <trip id="t_5_to_20" type="taz_vehicle" fromTaz="5" toTaz="20" depart="0" />
    <trip id="t_5_to_21" type="taz_vehicle" fromTaz="5" toTaz="21" depart="0" />
    <trip id="t_5_to_22" type="taz_vehicle" fromTaz="5" toTaz="22" depart="0" />
    <trip id="t_5_to_23" type="taz_vehicle" fromTaz="5" toTaz="23" depart="0" />
    <trip id="t_5_to_24" type="taz_vehicle" fromTaz="5" toTaz="24" depart="0" />
    <trip id="t_5_to_25" type="taz_vehicle" fromTaz="5" toTaz="25" depart="0" />
    <trip id="t_5_to_26" type="taz_vehicle" fromTaz="5" toTaz="26" depart="0" />
    <trip id="t_6_to_1" type="taz_vehicle" fromTaz="6" toTaz="1" depart="0" />
    <trip id="t_6_to_2" type="taz_vehicle" fromTaz="6" toTaz="2" depart="0" />
    <trip id="t_6_to_3" type="taz_vehicle" fromTaz="6" toTaz="3" depart="0" />
    <trip id="t_6_to_4" type="taz_vehicle" fromTaz="6" toTaz="4" depart="0" />
    <trip id="t_6_to_5" type="taz_vehicle" fromTaz="6" toTaz="5" depart="0" />
    <trip id="t_6_to_7" type="taz_vehicle" fromTaz="6" toTaz="7" depart="0" />
    <trip id="t_6_to_8" type="taz_vehicle" fromTaz="6" toTaz="8" depart="0" />
    <trip id="t_6_to_9" type="taz_vehicle" fromTaz="6" toTaz="9" depart="0" />
    <trip id="t_6_to_10" type="taz_vehicle" fromTaz="6" toTaz="10" depart="0" />
    <trip id="t_6_to_11" type="taz_vehicle" fromTaz="6" toTaz="11" depart="0" />
    <trip id="t_6_to_12" type="taz_vehicle" fromTaz="6" toTaz="12" depart="0" />
    <trip id="t_6_to_13" type="taz_vehicle" fromTaz="6" toTaz="13" depart="0" />
    <trip id="t_6_to_14" type="taz_vehicle" fromTaz="6" toTaz="14" depart="0" />
    <trip id="t_6_to_15" type="taz_vehicle" fromTaz="6" toTaz="15" depart="0" />
    <trip id="t_6_to_16" type="taz_vehicle" fromTaz="6" toTaz="16" depart="0" />
    <trip id="t_6_to_17" type="taz_vehicle" fromTaz="6" toTaz="17" depart="0" />
    <trip id="t_6_to_18" type="taz_vehicle" fromTaz="6" toTaz="18" depart="0" />
    <trip id="t_6_to_19" type="taz_vehicle" fromTaz="6" toTaz="19" depart="0" />
    <trip id="t_6_to_20" type="taz_vehicle" fromTaz="6" toTaz="20" depart="0" />
    <trip id="t_6_to_21" type="taz_vehicle" fromTaz="6" toTaz="21" depart="0" />
    <trip id="t_6_to_22" type="taz_vehicle" fromTaz="6" toTaz="22" depart="0" />
    <trip id="t_6_to_23" type="taz_vehicle" fromTaz="6" toTaz="23" depart="0" />
    <trip id="t_6_to_24" type="taz_vehicle" fromTaz="6" toTaz="24" depart="0" />
    <trip id="t_6_to_25" type="taz_vehicle" fromTaz="6" toTaz="25" depart="0" />
    <trip id="t_6_to_26" type="taz_vehicle" fromTaz="6" toTaz="26" depart="0" />
    <trip id="t_7_to_1" type="taz_vehicle" fromTaz="7" toTaz="1" depart="0" />
    <trip id="t_7_to_2" type="taz_vehicle" fromTaz="7" toTaz="2" depart="0" />
    <trip id="t_7_to_3" type="taz_vehicle" fromTaz="7" toTaz="3" depart="0" />
    <trip id="t_7_to_4" type="taz_vehicle" fromTaz="7" toTaz="4" depart="0" />
    <trip id="t_7_to_5" type="taz_vehicle" fromTaz="7" toTaz="5" depart="0" />
    <trip id="t_7_to_6" type="taz_vehicle" fromTaz="7" toTaz="6" depart="0" />
    <trip id="t_7_to_8" type="taz_vehicle" fromTaz="7" toTaz="8" depart="0" />
    <trip id="t_7_to_9" type="taz_vehicle" fromTaz="7" toTaz="9" depart="0" />
    <trip id="t_7_to_10" type="taz_vehicle" fromTaz="7" toTaz="10" depart="0" />
    <trip id="t_7_to_11" type="taz_vehicle" fromTaz="7" toTaz="11" depart="0" />
    <trip id="t_7_to_12" type="taz_vehicle" fromTaz="7" toTaz="12" depart="0" />
    <trip id="t_7_to_13" type="taz_vehicle" fromTaz="7" toTaz="13" depart="0" />
    <trip id="t_7_to_14" type="taz_vehicle" fromTaz="7" toTaz="14" depart="0" />
    <trip id="t_7_to_15" type="taz_vehicle" fromTaz="7" toTaz="15" depart="0" />
    <trip id="t_7_to_16" type="taz_vehicle" fromTaz="7" toTaz="16" depart="0" />
    <trip id="t_7_to_17" type="taz_vehicle" fromTaz="7" toTaz="17" depart="0" />
    <trip id="t_7_to_18" type="taz_vehicle" fromTaz="7" toTaz="18" depart="0" />
    <trip id="t_7_to_19" type="taz_vehicle" fromTaz="7" toTaz="19" depart="0" />
    <trip id="t_7_to_20" type="taz_vehicle" fromTaz="7" toTaz="20" depart="0" />
    <trip id="t_7_to_21" type="taz_vehicle" fromTaz="7" toTaz="21" depart="0" />
    <trip id="t_7_to_22" type="taz_vehicle" fromTaz="7" toTaz="22" depart="0" />
    <trip id="t_7_to_23" type="taz_vehicle" fromTaz="7" toTaz="23" depart="0" />
    <trip id="t_7_to_24" type="taz_vehicle" fromTaz="7" toTaz="24" depart="0" />
    <trip id="t_7_to_25" type="taz_vehicle" fromTaz="7" toTaz="25" depart="0" />
    <trip id="t_7_to_26" type="taz_vehicle" fromTaz="7" toTaz="26" depart="0" />
    <trip id="t_8_to_1" type="taz_vehicle" fromTaz="8" toTaz="1" depart="0" />
    <trip id="t_8_to_2" type="taz_vehicle" fromTaz="8" toTaz="2" depart="0" />
    <trip id="t_8_to_3" type="taz_vehicle" fromTaz="8" toTaz="3" depart="0" />
    <trip id="t_8_to_4" type="taz_vehicle" fromTaz="8" toTaz="4" depart="0" />
    <trip id="t_8_to_5" type="taz_vehicle" fromTaz="8" toTaz="5" depart="0" />
    <trip id="t_8_to_6" type="taz_vehicle" fromTaz="8" toTaz="6" depart="0" />
    <trip id="t_8_to_7" type="taz_vehicle" fromTaz="8" toTaz="7" depart="0" />
    <trip id="t_8_to_9" type="taz_vehicle" fromTaz="8" toTaz="9" depart="0" />
    <trip id="t_8_to_10" type="taz_vehicle" fromTaz="8" toTaz="10" depart="0" />
    <trip id="t_8_to_11" type="taz_vehicle" fromTaz="8" toTaz="11" depart="0" />
    <trip id="t_8_to_12" type="taz_vehicle" fromTaz="8" toTaz="12" depart="0" />
    <trip id="t_8_to_13" type="taz_vehicle" fromTaz="8" toTaz="13" depart="0" />
    <trip id="t_8_to_14" type="taz_vehicle" fromTaz="8" toTaz="14" depart="0" />
    <trip id="t_8_to_15" type="taz_vehicle" fromTaz="8" toTaz="15" depart="0" />
    <trip id="t_8_to_16" type="taz_vehicle" fromTaz="8" toTaz="16" depart="0" />
    <trip id="t_8_to_17" type="taz_vehicle" fromTaz="8" toTaz="17" depart="0" />
    <trip id="t_8_to_18" type="taz_vehicle" fromTaz="8" toTaz="18" depart="0" />
    <trip id="t_8_to_19" type="taz_vehicle" fromTaz="8" toTaz="19" depart="0" />
    <trip id="t_8_to_20" type="taz_vehicle" fromTaz="8" toTaz="20" depart="0" />
    <trip id="t_8_to_21" type="taz_vehicle" fromTaz="8" toTaz="21" depart="0" />
    <trip id="t_8_to_22" type="taz_vehicle" fromTaz="8" toTaz="22" depart="0" />
    <trip id="t_8_to_23" type="taz_vehicle" fromTaz="8" toTaz="23" depart="0" />
    <trip id="t_8_to_24" type="taz_vehicle" fromTaz="8" toTaz="24" depart="0" />
    <trip id="t_8_to_25" type="taz_vehicle" fromTaz="8" toTaz="25" depart="0" />
    <trip id="t_8_to_26" type="taz_vehicle" fromTaz="8" toTaz="26" depart="0" />
    <trip id="t_9_to_1" type="taz_vehicle" fromTaz="9" toTaz="1" depart="0" />
    <trip id="t_9_to_2" type="taz_vehicle" fromTaz="9" toTaz="2" depart="0" />
    <trip id="t_9_to_3" type="taz_vehicle" fromTaz="9" toTaz="3" depart="0" />
    <trip id="t_9_to_4" type="taz_vehicle" fromTaz="9" toTaz="4" depart="0" />
    <trip id="t_9_to_5" type="taz_vehicle" fromTaz="9" toTaz="5" depart="0" />
    <trip id="t_9_to_6" type="taz_vehicle" fromTaz="9" toTaz="6" depart="0" />
    <trip id="t_9_to_7" type="taz_vehicle" fromTaz="9" toTaz="7" depart="0" />
    <trip id="t_9_to_8" type="taz_vehicle" fromTaz="9" toTaz="8" depart="0" />
    <trip id="t_9_to_10" type="taz_vehicle" fromTaz="9" toTaz="10" depart="0" />
    <trip id="t_9_to_11" type="taz_vehicle" fromTaz="9" toTaz="11" depart="0" />
    <trip id="t_9_to_12" type="taz_vehicle" fromTaz="9" toTaz="12" depart="0" />
    <trip id="t_9_to_13" type="taz_vehicle" fromTaz="9" toTaz="13" depart="0" />
    <trip id="t_9_to_14" type="taz_vehicle" fromTaz="9" toTaz="14" depart="0" />
    <trip id="t_9_to_15" type="taz_vehicle" fromTaz="9" toTaz="15" depart="0" />
    <trip id="t_9_to_16" type="taz_vehicle" fromTaz="9" toTaz="16" depart="0" />
    <trip id="t_9_to_17" type="taz_vehicle" fromTaz="9" toTaz="17" depart="0" />
    <trip id="t_9_to_18" type="taz_vehicle" fromTaz="9" toTaz="18" depart="0" />
    <trip id="t_9_to_19" type="taz_vehicle" fromTaz="9" toTaz="19" depart="0" />
    <trip id="t_9_to_20" type="taz_vehicle" fromTaz="9" toTaz="20" depart="0" />
    <trip id="t_9_to_21" type="taz_vehicle" fromTaz="9" toTaz="21" depart="0" />
    <trip id="t_9_to_22" type="taz_vehicle" fromTaz="9" toTaz="22" depart="0" />
    <trip id="t_9_to_23" type="taz_vehicle" fromTaz="9" toTaz="23" depart="0" />
    <trip id="t_9_to_24" type="taz_vehicle" fromTaz="9" toTaz="24" depart="0" />
    <trip id="t_9_to_25" type="taz_vehicle" fromTaz="9" toTaz="25" depart="0" />
    <trip id="t_9_to_26" type="taz_vehicle" fromTaz="9" toTaz="26" depart="0" />
    <trip id="t_10_to_1" type="taz_vehicle" fromTaz="10" toTaz="1" depart="0" />
    <trip id="t_10_to_2" type="taz_vehicle" fromTaz="10" toTaz="2" depart="0" />
    <trip id="t_10_to_3" type="taz_vehicle" fromTaz="10" toTaz="3" depart="0" />
    <trip id="t_10_to_4" type="taz_vehicle" fromTaz="10" toTaz="4" depart="0" />
    <trip id="t_10_to_5" type="taz_vehicle" fromTaz="10" toTaz="5" depart="0" />
    <trip id="t_10_to_6" type="taz_vehicle" fromTaz="10" toTaz="6" depart="0" />
    <trip id="t_10_to_7" type="taz_vehicle" fromTaz="10" toTaz="7" depart="0" />
    <trip id="t_10_to_8" type="taz_vehicle" fromTaz="10" toTaz="8" depart="0" />
    <trip id="t_10_to_9" type="taz_vehicle" fromTaz="10" toTaz="9" depart="0" />
    <trip id="t_10_to_11" type="taz_vehicle" fromTaz="10" toTaz="11" depart="0" />
    <trip id="t_10_to_12" type="taz_vehicle" fromTaz="10" toTaz="12" depart="0" />
    <trip id="t_10_to_13" type="taz_vehicle" fromTaz="10" toTaz="13" depart="0" />
    <trip id="t_10_to_14" type="taz_vehicle" fromTaz="10" toTaz="14" depart="0" />
    <trip id="t_10_to_15" type="taz_vehicle" fromTaz="10" toTaz="15" depart="0" />
    <trip id="t_10_to_16" type="taz_vehicle" fromTaz="10" toTaz="16" depart="0" />
    <trip id="t_10_to_17" type="taz_vehicle" fromTaz="10" toTaz="17" depart="0" />
    <trip id="t_10_to_18" type="taz_vehicle" fromTaz="10" toTaz="18" depart="0" />
    <trip id="t_10_to_19" type="taz_vehicle" fromTaz="10" toTaz="19" depart="0" />
    <trip id="t_10_to_20" type="taz_vehicle" fromTaz="10" toTaz="20" depart="0" />
    <trip id="t_10_to_21" type="taz_vehicle" fromTaz="10" toTaz="21" depart="0" />
    <trip id="t_10_to_22" type="taz_vehicle" fromTaz="10" toTaz="22" depart="0" />
    <trip id="t_10_to_23" type="taz_vehicle" fromTaz="10" toTaz="23" depart="0" />
    <trip id="t_10_to_24" type="taz_vehicle" fromTaz="10" toTaz="24" depart="0" />
    <trip id="t_10_to_25" type="taz_vehicle" fromTaz="10" toTaz="25" depart="0" />
    <trip id="t_10_to_26" type="taz_vehicle" fromTaz="10" toTaz="26" depart="0" />
    <trip id="t_11_to_1" type="taz_vehicle" fromTaz="11" toTaz="1" depart="0" />
    <trip id="t_11_to_2" type="taz_vehicle" fromTaz="11" toTaz="2" depart="0" />
    <trip id="t_11_to_3" type="taz_vehicle" fromTaz="11" toTaz="3" depart="0" />
    <trip id="t_11_to_4" type="taz_vehicle" fromTaz="11" toTaz="4" depart="0" />
    <trip id="t_11_to_5" type="taz_vehicle" fromTaz="11" toTaz="5" depart="0" />
    <trip id="t_11_to_6" type="taz_vehicle" fromTaz="11" toTaz="6" depart="0" />
    <trip id="t_11_to_7" type="taz_vehicle" fromTaz="11" toTaz="7" depart="0" />
    <trip id="t_11_to_8" type="taz_vehicle" fromTaz="11" toTaz="8" depart="0" />
    <trip id="t_11_to_9" type="taz_vehicle" fromTaz="11" toTaz="9" depart="0" />
    <trip id="t_11_to_10" type="taz_vehicle" fromTaz="11" toTaz="10" depart="0" />
    <trip id="t_11_to_12" type="taz_vehicle" fromTaz="11" toTaz="12" depart="0" />
    <trip id="t_11_to_13" type="taz_vehicle" fromTaz="11" toTaz="13" depart="0" />
    <trip id="t_11_to_14" type="taz_vehicle" fromTaz="11" toTaz="14" depart="0" />
    <trip id="t_11_to_15" type="taz_vehicle" fromTaz="11" toTaz="15" depart="0" />
    <trip id="t_11_to_16" type="taz_vehicle" fromTaz="11" toTaz="16" depart="0" />
    <trip id="t_11_to_17" type="taz_vehicle" fromTaz="11" toTaz="17" depart="0" />
    <trip id="t_11_to_18" type="taz_vehicle" fromTaz="11" toTaz="18" depart="0" />
    <trip id="t_11_to_19" type="taz_vehicle" fromTaz="11" toTaz="19" depart="0" />
    <trip id="t_11_to_20" type="taz_vehicle" fromTaz="11" toTaz="20" depart="0" />
    <trip id="t_11_to_21" type="taz_vehicle" fromTaz="11" toTaz="21" depart="0" />
    <trip id="t_11_to_22" type="taz_vehicle" fromTaz="11" toTaz="22" depart="0" />
    <trip id="t_11_to_23" type="taz_vehicle" fromTaz="11" toTaz="23" depart="0" />
    <trip id="t_11_to_24" type="taz_vehicle" fromTaz="11" toTaz="24" depart="0" />
    <trip id="t_11_to_25" type="taz_vehicle" fromTaz="11" toTaz="25" depart="0" />
    <trip id="t_11_to_26" type="taz_vehicle" fromTaz="11" toTaz="26" depart="0" />
    <trip id="t_12_to_1" type="taz_vehicle" fromTaz="12" toTaz="1" depart="0" />
    <trip id="t_12_to_2" type="taz_vehicle" fromTaz="12" toTaz="2" depart="0" />
    <trip id="t_12_to_3" type="taz_vehicle" fromTaz="12" toTaz="3" depart="0" />
    <trip id="t_12_to_4" type="taz_vehicle" fromTaz="12" toTaz="4" depart="0" />
    <trip id="t_12_to_5" type="taz_vehicle" fromTaz="12" toTaz="5" depart="0" />
    <trip id="t_12_to_6" type="taz_vehicle" fromTaz="12" toTaz="6" depart="0" />
    <trip id="t_12_to_7" type="taz_vehicle" fromTaz="12" toTaz="7" depart="0" />
    <trip id="t_12_to_8" type="taz_vehicle" fromTaz="12" toTaz="8" depart="0" />
    <trip id="t_12_to_9" type="taz_vehicle" fromTaz="12" toTaz="9" depart="0" />
    <trip id="t_12_to_10" type="taz_vehicle" fromTaz="12" toTaz="10" depart="0" />
    <trip id="t_12_to_11" type="taz_vehicle" fromTaz="12" toTaz="11" depart="0" />
    <trip id="t_12_to_13" type="taz_vehicle" fromTaz="12" toTaz="13" depart="0" />
    <trip id="t_12_to_14" type="taz_vehicle" fromTaz="12" toTaz="14" depart="0" />
    <trip id="t_12_to_15" type="taz_vehicle" fromTaz="12" toTaz="15" depart="0" />
    <trip id="t_12_to_16" type="taz_vehicle" fromTaz="12" toTaz="16" depart="0" />
    <trip id="t_12_to_17" type="taz_vehicle" fromTaz="12" toTaz="17" depart="0" />
    <trip id="t_12_to_18" type="taz_vehicle" fromTaz="12" toTaz="18" depart="0" />
    <trip id="t_12_to_19" type="taz_vehicle" fromTaz="12" toTaz="19" depart="0" />
    <trip id="t_12_to_20" type="taz_vehicle" fromTaz="12" toTaz="20" depart="0" />
    <trip id="t_12_to_21" type="taz_vehicle" fromTaz="12" toTaz="21" depart="0" />
    <trip id="t_12_to_22" type="taz_vehicle" fromTaz="12" toTaz="22" depart="0" />
    <trip id="t_12_to_23" type="taz_vehicle" fromTaz="12" toTaz="23" depart="0" />
    <trip id="t_12_to_24" type="taz_vehicle" fromTaz="12" toTaz="24" depart="0" />
    <trip id="t_12_to_25" type="taz_vehicle" fromTaz="12" toTaz="25" depart="0" />
    <trip id="t_12_to_26" type="taz_vehicle" fromTaz="12" toTaz="26" depart="0" />
    <trip id="t_13_to_1" type="taz_vehicle" fromTaz="13" toTaz="1" depart="0" />
    <trip id="t_13_to_2" type="taz_vehicle" fromTaz="13" toTaz="2" depart="0" />
    <trip id="t_13_to_3" type="taz_vehicle" fromTaz="13" toTaz="3" depart="0" />
    <trip id="t_13_to_4" type="taz_vehicle" fromTaz="13" toTaz="4" depart="0" />
    <trip id="t_13_to_5" type="taz_vehicle" fromTaz="13" toTaz="5" depart="0" />
    <trip id="t_13_to_6" type="taz_vehicle" fromTaz="13" toTaz="6" depart="0" />
    <trip id="t_13_to_7" type="taz_vehicle" fromTaz="13" toTaz="7" depart="0" />
    <trip id="t_13_to_8" type="taz_vehicle" fromTaz="13" toTaz="8" depart="0" />
    <trip id="t_13_to_9" type="taz_vehicle" fromTaz="13" toTaz="9" depart="0" />
    <trip id="t_13_to_10" type="taz_vehicle" fromTaz="13" toTaz="10" depart="0" />
    <trip id="t_13_to_11" type="taz_vehicle" fromTaz="13" toTaz="11" depart="0" />
    <trip id="t_13_to_12" type="taz_vehicle" fromTaz="13" toTaz="12" depart="0" />
    <trip id="t_13_to_14" type="taz_vehicle" fromTaz="13" toTaz="14" depart="0" />
    <trip id="t_13_to_15" type="taz_vehicle" fromTaz="13" toTaz="15" depart="0" />
    <trip id="t_13_to_16" type="taz_vehicle" fromTaz="13" toTaz="16" depart="0" />
    <trip id="t_13_to_17" type="taz_vehicle" fromTaz="13" toTaz="17" depart="0" />
    <trip id="t_13_to_18" type="taz_vehicle" fromTaz="13" toTaz="18" depart="0" />
    <trip id="t_13_to_19" type="taz_vehicle" fromTaz="13" toTaz="19" depart="0" />
    <trip id="t_13_to_20" type="taz_vehicle" fromTaz="13" toTaz="20" depart="0" />
    <trip id="t_13_to_21" type="taz_vehicle" fromTaz="13" toTaz="21" depart="0" />
    <trip id="t_13_to_22" type="taz_vehicle" fromTaz="13" toTaz="22" depart="0" />
    <trip id="t_13_to_23" type="taz_vehicle" fromTaz="13" toTaz="23" depart="0" />
    <trip id="t_13_to_24" type="taz_vehicle" fromTaz="13" toTaz="24" depart="0" />
    <trip id="t_13_to_25" type="taz_vehicle" fromTaz="13" toTaz="25" depart="0" />
    <trip id="t_13_to_26" type="taz_vehicle" fromTaz="13" toTaz="26" depart="0" />
    <trip id="t_14_to_1" type="taz_vehicle" fromTaz="14" toTaz="1" depart="0" />
    <trip id="t_14_to_2" type="taz_vehicle" fromTaz="14" toTaz="2" depart="0" />
    <trip id="t_14_to_3" type="taz_vehicle" fromTaz="14" toTaz="3" depart="0" />
    <trip id="t_14_to_4" type="taz_vehicle" fromTaz="14" toTaz="4" depart="0" />
    <trip id="t_14_to_5" type="taz_vehicle" fromTaz="14" toTaz="5" depart="0" />
    <trip id="t_14_to_6" type="taz_vehicle" fromTaz="14" toTaz="6" depart="0" />
    <trip id="t_14_to_7" type="taz_vehicle" fromTaz="14" toTaz="7" depart="0" />
    <trip id="t_14_to_8" type="taz_vehicle" fromTaz="14" toTaz="8" depart="0" />
    <trip id="t_14_to_9" type="taz_vehicle" fromTaz="14" toTaz="9" depart="0" />
    <trip id="t_14_to_10" type="taz_vehicle" fromTaz="14" toTaz="10" depart="0" />
    <trip id="t_14_to_11" type="taz_vehicle" fromTaz="14" toTaz="11" depart="0" />
    <trip id="t_14_to_12" type="taz_vehicle" fromTaz="14" toTaz="12" depart="0" />
    <trip id="t_14_to_13" type="taz_vehicle" fromTaz="14" toTaz="13" depart="0" />
    <trip id="t_14_to_15" type="taz_vehicle" fromTaz="14" toTaz="15" depart="0" />
    <trip id="t_14_to_16" type="taz_vehicle" fromTaz="14" toTaz="16" depart="0" />
    <trip id="t_14_to_17" type="taz_vehicle" fromTaz="14" toTaz="17" depart="0" />
    <trip id="t_14_to_18" type="taz_vehicle" fromTaz="14" toTaz="18" depart="0" />
    <trip id="t_14_to_19" type="taz_vehicle" fromTaz="14" toTaz="19" depart="0" />
    <trip id="t_14_to_20" type="taz_vehicle" fromTaz="14" toTaz="20" depart="0" />
    <trip id="t_14_to_21" type="taz_vehicle" fromTaz="14" toTaz="21" depart="0" />
    <trip id="t_14_to_22" type="taz_vehicle" fromTaz="14" toTaz="22" depart="0" />
    <trip id="t_14_to_23" type="taz_vehicle" fromTaz="14" toTaz="23" depart="0" />
    <trip id="t_14_to_24" type="taz_vehicle" fromTaz="14" toTaz="24" depart="0" />
    <trip id="t_14_to_25" type="taz_vehicle" fromTaz="14" toTaz="25" depart="0" />
    <trip id="t_14_to_26" type="taz_vehicle" fromTaz="14" toTaz="26" depart="0" />
    <trip id="t_15_to_1" type="taz_vehicle" fromTaz="15" toTaz="1" depart="0" />
    <trip id="t_15_to_2" type="taz_vehicle" fromTaz="15" toTaz="2" depart="0" />
    <trip id="t_15_to_3" type="taz_vehicle" fromTaz="15" toTaz="3" depart="0" />
    <trip id="t_15_to_4" type="taz_vehicle" fromTaz="15" toTaz="4" depart="0" />
    <trip id="t_15_to_5" type="taz_vehicle" fromTaz="15" toTaz="5" depart="0" />
    <trip id="t_15_to_6" type="taz_vehicle" fromTaz="15" toTaz="6" depart="0" />
    <trip id="t_15_to_7" type="taz_vehicle" fromTaz="15" toTaz="7" depart="0" />
    <trip id="t_15_to_8" type="taz_vehicle" fromTaz="15" toTaz="8" depart="0" />
    <trip id="t_15_to_9" type="taz_vehicle" fromTaz="15" toTaz="9" depart="0" />
    <trip id="t_15_to_10" type="taz_vehicle" fromTaz="15" toTaz="10" depart="0" />
    <trip id="t_15_to_11" type="taz_vehicle" fromTaz="15" toTaz="11" depart="0" />
    <trip id="t_15_to_12" type="taz_vehicle" fromTaz="15" toTaz="12" depart="0" />
    <trip id="t_15_to_13" type="taz_vehicle" fromTaz="15" toTaz="13" depart="0" />
    <trip id="t_15_to_14" type="taz_vehicle" fromTaz="15" toTaz="14" depart="0" />
    <trip id="t_15_to_16" type="taz_vehicle" fromTaz="15" toTaz="16" depart="0" />
    <trip id="t_15_to_17" type="taz_vehicle" fromTaz="15" toTaz="17" depart="0" />
    <trip id="t_15_to_18" type="taz_vehicle" fromTaz="15" toTaz="18" depart="0" />
    <trip id="t_15_to_19" type="taz_vehicle" fromTaz="15" toTaz="19" depart="0" />
    <trip id="t_15_to_20" type="taz_vehicle" fromTaz="15" toTaz="20" depart="0" />