<?xml version="1.0" encoding="UTF-8"?>

<!-- generated on 2026-01-18T11:45:51.729346+00:00 by Eclipse SUMO od2trips 1.25.0
<od2tripsConfiguration xmlns:xsi="http://www.w3.org/2001/XMLSchema-instance" xsi:noNamespaceSchemaLocation="http://sumo.dlr.de/xsd/od2tripsConfiguration.xsd">

    <input>
        <taz-files value="taz.xml"/>
        <tazrelation-files value="baseline_matrix.xml"/>
    </input>

    <output>
        <output-file value="trips.trips.xml"/>
    </output>

    <processing>
        <vtype value="DEFAULT_VEHTYPE"/>
    </processing>

</od2tripsConfiguration>
-->

<routes xmlns:xsi="http://www.w3.org/2001/XMLSchema-instance" xsi:noNamespaceSchemaLocation="http://sumo.dlr.de/xsd/routes_file.xsd">
    <trip id="397" depart="0.23" from="1844800" to="1969025" type="DEFAULT_VEHTYPE" fromTaz="12" toTaz="9" departLane="free" departSpeed="max"/>
    <trip id="730" depart="0.26" from="1111267" to="1019654" type="DEFAULT_VEHTYPE" fromTaz="17" toTaz="1" departLane="free" departSpeed="max"/>
    <trip id="1931" depart="0.53" from="1063513" to="1584238" type="DEFAULT_VEHTYPE" fromTaz="7" toTaz="25" departLane="free" departSpeed="max"/>
    <trip id="57" depart="0.56" from="1265035" to="1020004" type="DEFAULT_VEHTYPE" fromTaz="1" toTaz="25" departLane="free" departSpeed="max"/>
    <trip id="373" depart="0.62" from="1193389" to="1177267" type="DEFAULT_VEHTYPE" fromTaz="12" toTaz="8" departLane="free" departSpeed="max"/>
    <trip id="1735" depart="0.75" from="1062943" to="1063338" type="DEFAULT_VEHTYPE" fromTaz="6" toTaz="7" departLane="free" departSpeed="max"/>
    <trip id="50" depart="0.79" from="1048407" to="1584238" type="DEFAULT_VEHTYPE" fromTaz="1" toTaz="25" departLane="free" departSpeed="max"/>
    <trip id="2022" depart="0.80" from="1743806" to="1716787" type="DEFAULT_VEHTYPE" fromTaz="9" toTaz="4" departLane="free" departSpeed="max"/>
    <trip id="153" depart="0.81" from="1048407" to="1051036" type="DEFAULT_VEHTYPE" fromTaz="1" toTaz="5" departLane="free" departSpeed="max"/>
    <trip id="121" depart="1.15" from="-1062845" to="1584238" type="DEFAULT_VEHTYPE" fromTaz="1" toTaz="25" departLane="free" departSpeed="max"/>
    <trip id="1499" depart="1.73" from="1768757" to="1019710" type="DEFAULT_VEHTYPE" fromTaz="3" toTaz="10" departLane="free" departSpeed="max"/>
    <trip id="111" depart="1.83" from="1019641" to="1020029" type="DEFAULT_VEHTYPE" fromTaz="1" toTaz="25" departLane="free" departSpeed="max"/>
    <trip id="915" depart="1.84" from="1020160" to="1063338" type="DEFAULT_VEHTYPE" fromTaz="2" toTaz="7" departLane="free" departSpeed="max"/>
    <trip id="756" depart="1.94" from="1111267" to="1584238" type="DEFAULT_VEHTYPE" fromTaz="17" toTaz="25" departLane="free" departSpeed="max"/>
    <trip id="164" depart="2.01" from="1265035" to="1051036" type="DEFAULT_VEHTYPE" fromTaz="1" toTaz="5" departLane="free" departSpeed="max"/>
    <trip id="702" depart="2.26" from="1175990" to="1188014" type="DEFAULT_VEHTYPE" fromTaz="16" toTaz="17" departLane="free" departSpeed="max"/>
    <trip id="1059" depart="2.72" from="1181568" to="1020046" type="DEFAULT_VEHTYPE" fromTaz="20" toTaz="26" departLane="free" departSpeed="max"/>
    <trip id="1150" depart="2.75" from="1302641" to="1716793" type="DEFAULT_VEHTYPE" fromTaz="21" toTaz="4" departLane="free" departSpeed="max"/>
    <trip id="447" depart="2.75" from="1398749" to="1016687" type="DEFAULT_VEHTYPE" fromTaz="13" toTaz="4" departLane="free" departSpeed="max"/>
    <trip id="232" depart="2.83" from="1019711" to="1111488" type="DEFAULT_VEHTYPE" fromTaz="10" toTaz="22" departLane="free" departSpeed="max"/>
    <trip id="503" depart="3.11" from="1051139" to="1181543" type="DEFAULT_VEHTYPE" fromTaz="14" toTaz="20" departLane="free" departSpeed="max"/>
    <trip id="1523" depart="3.27" from="1020165" to="1062796" type="DEFAULT_VEHTYPE" fromTaz="3" toTaz="2" departLane="free" departSpeed="max"/>
    <trip id="37" depart="3.52" from="1086780" to="1020029" type="DEFAULT_VEHTYPE" fromTaz="1" toTaz="25" departLane="free" departSpeed="max"/>
    <trip id="1926" depart="3.69" from="1063513" to="1020004" type="DEFAULT_VEHTYPE" fromTaz="7" toTaz="25" departLane="free" departSpeed="max"/>
    <trip id="767" depart="3.81" from="1215241" to="2011032" type="DEFAULT_VEHTYPE" fromTaz="18" toTaz="11" departLane="free" departSpeed="max"/>
    <trip id="66" depart="3.84" from="1019622" to="1020004" type="DEFAULT_VEHTYPE" fromTaz="1" toTaz="25" departLane="free" departSpeed="max"/>
    <trip id="772" depart="3.87" from="1215241" to="1810067" type="DEFAULT_VEHTYPE" fromTaz="18" toTaz="16" departLane="free" departSpeed="max"/>
    <trip id="1111" depart="3.98" from="1181568" to="1020046" type="DEFAULT_VEHTYPE" fromTaz="20" toTaz="26" departLane="free" departSpeed="max"/>
    <trip id="1729" depart="4.26" from="1062246" to="1063338" type="DEFAULT_VEHTYPE" fromTaz="6" toTaz="7" departLane="free" departSpeed="max"/>
    <trip id="1318" depart="4.33" from="1020013" to="1122692" type="DEFAULT_VEHTYPE" fromTaz="25" toTaz="7" departLane="free" departSpeed="max"/>
    <trip id="671" depart="4.40" from="1175990" to="1111269" type="DEFAULT_VEHTYPE" fromTaz="16" toTaz="17" departLane="free" departSpeed="max"/>
    <trip id="1722" depart="4.43" from="1062246" to="1063338" type="DEFAULT_VEHTYPE" fromTaz="6" toTaz="7" departLane="free" departSpeed="max"/>
    <trip id="869" depart="4.49" from="1188035" to="1181543" type="DEFAULT_VEHTYPE" fromTaz="2" toTaz="20" departLane="free" departSpeed="max"/>
    <trip id="1179" depart="4.55" from="1582715" to="1020171" type="DEFAULT_VEHTYPE" fromTaz="22" toTaz="3" departLane="free" departSpeed="max"/>
    <trip id="416" depart="4.77" from="1398726" to="1398689" type="DEFAULT_VEHTYPE" fromTaz="13" toTaz="14" departLane="free" departSpeed="max"/>
    <trip id="2053" depart="5.03" from="1743806" to="1177269" type="DEFAULT_VEHTYPE" fromTaz="9" toTaz="8" departLane="free" departSpeed="max"/>
    <trip id="591" depart="5.27" from="1401479" to="1969025" type="DEFAULT_VEHTYPE" fromTaz="15" toTaz="9" departLane="free" departSpeed="max"/>
    <trip id="1679" depart="5.34" from="1062943" to="1193391" type="DEFAULT_VEHTYPE" fromTaz="6" toTaz="12" departLane="free" departSpeed="max"/>
    <trip id="154" depart="5.49" from="1048407" to="1523228" type="DEFAULT_VEHTYPE" fromTaz="1" toTaz="5" departLane="free" departSpeed="max"/>
    <trip id="2045" depart="5.63" from="1743806" to="1177267" type="DEFAULT_VEHTYPE" fromTaz="9" toTaz="8" departLane="free" departSpeed="max"/>
    <trip id="657" depart="6.00" from="1204005" to="1935065" type="DEFAULT_VEHTYPE" fromTaz="16" toTaz="17" departLane="free" departSpeed="max"/>
    <trip id="523" depart="6.19" from="1051139" to="1181543" type="DEFAULT_VEHTYPE" fromTaz="14" toTaz="20" departLane="free" departSpeed="max"/>
    <trip id="1448" depart="6.35" from="1020050" to="1062796" type="DEFAULT_VEHTYPE" fromTaz="26" toTaz="2" departLane="free" departSpeed="max"/>
    <trip id="562" depart="6.37" from="1189910" to="1135405" type="DEFAULT_VEHTYPE" fromTaz="15" toTaz="21" departLane="free" departSpeed="max"/>
    <trip id="724" depart="6.74" from="1810069" to="1716787" type="DEFAULT_VEHTYPE" fromTaz="16" toTaz="4" departLane="free" departSpeed="max"/>
    <trip id="551" depart="6.89" from="1189910" to="1189937" type="DEFAULT_VEHTYPE" fromTaz="15" toTaz="15" departLane="free" departSpeed="max"/>
    <trip id="406" depart="6.97" from="1398749" to="1398689" type="DEFAULT_VEHTYPE" fromTaz="13" toTaz="14" departLane="free" departSpeed="max"/>
    <trip id="668" depart="7.11" from="1175990" to="1111269" type="DEFAULT_VEHTYPE" fromTaz="16" toTaz="17" departLane="free" departSpeed="max"/>
    <trip id="699" depart="7.24" from="1204005" to="1111269" type="DEFAULT_VEHTYPE" fromTaz="16" toTaz="17" departLane="free" departSpeed="max"/>
    <trip id="35" depart="7.38" from="1019643" to="1019569" type="DEFAULT_VEHTYPE" fromTaz="1" toTaz="24" departLane="free" departSpeed="max"/>
    <trip id="1697" depart="7.55" from="1062943" to="1523228" type="DEFAULT_VEHTYPE" fromTaz="6" toTaz="5" departLane="free" departSpeed="max"/>
    <trip id="99" depart="7.90" from="-1062845" to="1020004" type="DEFAULT_VEHTYPE" fromTaz="1" toTaz="25" departLane="free" departSpeed="max"/>
    <trip id="1403" depart="7.98" from="1020050" to="1020161" type="DEFAULT_VEHTYPE" fromTaz="26" toTaz="2" departLane="free" departSpeed="max"/>
    <trip id="656" depart="7.99" from="1175990" to="1935065" type="DEFAULT_VEHTYPE" fromTaz="16" toTaz="17" departLane="free" departSpeed="max"/>
    <trip id="1834" depart="8.03" from="1063513" to="1062796" type="DEFAULT_VEHTYPE" fromTaz="7" toTaz="2" departLane="free" departSpeed="max"/>
    <trip id="1154" depart="8.07" from="1302641" to="1177267" type="DEFAULT_VEHTYPE" fromTaz="21" toTaz="8" departLane="free" departSpeed="max"/>
    <trip id="1766" depart="8.88" from="1063513" to="1767911" type="DEFAULT_VEHTYPE" fromTaz="7" toTaz="2" departLane="free" departSpeed="max"/>
    <trip id="1122" depart="8.90" from="1181568" to="1020046" type="DEFAULT_VEHTYPE" fromTaz="20" toTaz="26" departLane="free" departSpeed="max"/>
    <trip id="435" depart="8.91" from="1398726" to="1188014" type="DEFAULT_VEHTYPE" fromTaz="13" toTaz="17" departLane="free" departSpeed="max"/>
    <trip id="1898" depart="9.18" from="1122691" to="1020029" type="DEFAULT_VEHTYPE" fromTaz="7" toTaz="25" departLane="free" departSpeed="max"/>
    <trip id="1606" depart="9.42" from="1716792" to="1181543" type="DEFAULT_VEHTYPE" fromTaz="4" toTaz="20" departLane="free" departSpeed="max"/>
    <trip id="978" depart="9.44" from="1062797" to="1122692" type="DEFAULT_VEHTYPE" fromTaz="2" toTaz="7" departLane="free" departSpeed="max"/>
    <trip id="1139" depart="9.70" from="1302641" to="1215221" type="DEFAULT_VEHTYPE" fromTaz="21" toTaz="18" departLane="free" departSpeed="max"/>
    <trip id="950" depart="9.90" from="1338403" to="1063338" type="DEFAULT_VEHTYPE" fromTaz="2" toTaz="7" departLane="free" departSpeed="max"/>
    <trip id="1694" depart="9.97" from="1062246" to="1020046" type="DEFAULT_VEHTYPE" fromTaz="6" toTaz="26" departLane="free" departSpeed="max"/>
    <trip id="1343" depart="10.16" from="1020050" to="1398689" type="DEFAULT_VEHTYPE" fromTaz="26" toTaz="14" departLane="free" departSpeed="max"/>
    <trip id="1993" depart="10.24" from="1743806" to="2011032" type="DEFAULT_VEHTYPE" fromTaz="9" toTaz="11" departLane="free" departSpeed="max"/>
    <trip id="480" depart="10.24" from="1051139" to="1181543" type="DEFAULT_VEHTYPE" fromTaz="14" toTaz="20" departLane="free" departSpeed="max"/>
    <trip id="21" depart="10.31" from="-1062845" to="1398689" type="DEFAULT_VEHTYPE" fromTaz="1" toTaz="14" departLane="free" departSpeed="max"/>
    <trip id="275" depart="11.04" from="1193389" to="1401531" type="DEFAULT_VEHTYPE" fromTaz="12" toTaz="11" departLane="free" departSpeed="max"/>
    <trip id="219" depart="11.27" from="1019711" to="1203952" type="DEFAULT_VEHTYPE" fromTaz="10" toTaz="16" departLane="free" departSpeed="max"/>
    <trip id="1554" depart="11.45" from="1768757" to="1716793" type="DEFAULT_VEHTYPE" fromTaz="3" toTaz="4" departLane="free" departSpeed="max"/>
    <trip id="307" depart="11.48" from="1193389" to="2011032" type="DEFAULT_VEHTYPE" fromTaz="12" toTaz="11" departLane="free" departSpeed="max"/>
    <trip id="339" depart="11.58" from="1193389" to="1193391" type="DEFAULT_VEHTYPE" fromTaz="12" toTaz="12" departLane="free" departSpeed="max"/>
    <trip id="1941" depart="11.87" from="1063513" to="1584238" type="DEFAULT_VEHTYPE" fromTaz="7" toTaz="25" departLane="free" departSpeed="max"/>
    <trip id="1101" depart="11.97" from="1181568" to="1020046" type="DEFAULT_VEHTYPE" fromTaz="20" toTaz="26" departLane="free" departSpeed="max"/>
    <trip id="2036" depart="12.24" from="1743806" to="1177269" type="DEFAULT_VEHTYPE" fromTaz="9" toTaz="8" departLane="free" departSpeed="max"/>
    <trip id="1123" depart="12.43" from="1181568" to="1020157" type="DEFAULT_VEHTYPE" fromTaz="20" toTaz="3" departLane="free" departSpeed="max"/>
    <trip id="335" depart="12.57" from="1193389" to="2011032" type="DEFAULT_VEHTYPE" fromTaz="12" toTaz="11" departLane="free" departSpeed="max"/>
    <trip id="1301" depart="12.61" from="1020027" to="1063338" type="DEFAULT_VEHTYPE" fromTaz="25" toTaz="7" departLane="free" departSpeed="max"/>
    <trip id="207" depart="12.82" from="1019711" to="1175980" type="DEFAULT_VEHTYPE" fromTaz="10" toTaz="16" departLane="free" departSpeed="max"/>
    <trip id="1672" depart="12.84" from="1523253" to="1063262" type="DEFAULT_VEHTYPE" fromTaz="5" toTaz="6" departLane="free" departSpeed="max"/>
    <trip id="257" depart="12.93" from="1051096" to="1135405" type="DEFAULT_VEHTYPE" fromTaz="11" toTaz="21" departLane="free" departSpeed="max"/>
    <trip id="1359" depart="12.95" from="1020050" to="1398689" type="DEFAULT_VEHTYPE" fromTaz="26" toTaz="14" departLane="free" departSpeed="max"/>
    <trip id="135" depart="13.05" from="1019643" to="1020029" type="DEFAULT_VEHTYPE" fromTaz="1" toTaz="25" departLane="free" departSpeed="max"/>
    <trip id="2024" depart="13.15" from="1743806" to="1016687" type="DEFAULT_VEHTYPE" fromTaz="9" toTaz="4" departLane="free" departSpeed="max"/>
    <trip id="118" depart="13.17" from="1265035" to="1020029" type="DEFAULT_VEHTYPE" fromTaz="1" toTaz="25" departLane="free" departSpeed="max"/>
    <trip id="1324" depart="13.19" from="1020013" to="1177267" type="DEFAULT_VEHTYPE" fromTaz="25" toTaz="8" departLane="free" departSpeed="max"/>
    <trip id="1383" depart="13.24" from="1020050" to="1188053" type="DEFAULT_VEHTYPE" fromTaz="26" toTaz="2" departLane="free" departSpeed="max"/>
    <trip id="1431" depart="13.26" from="1020050" to="1062929" type="DEFAULT_VEHTYPE" fromTaz="26" toTaz="2" departLane="free" departSpeed="max"/>
    <trip id="268" depart="13.41" from="1051104" to="1177269" type="DEFAULT_VEHTYPE" fromTaz="11" toTaz="8" departLane="free" departSpeed="max"/>
    <trip id="1308" depart="13.78" from="1020045" to="1063338" type="DEFAULT_VEHTYPE" fromTaz="25" toTaz="7" departLane="free" departSpeed="max"/>
    <trip id="1415" depart="14.37" from="1020050" to="1188053" type="DEFAULT_VEHTYPE" fromTaz="26" toTaz="2" departLane="free" departSpeed="max"/>
    <trip id="875" depart="14.59" from="1062797" to="1020046" type="DEFAULT_VEHTYPE" fromTaz="2" toTaz="26" departLane="free" departSpeed="max"/>
    <trip id="1561" depart="14.71" from="1020167" to="1177267" type="DEFAULT_VEHTYPE" fromTaz="3" toTaz="8" departLane="free" departSpeed="max"/>
    <trip id="1046" depart="14.93" from="1181568" to="1020046" type="DEFAULT_VEHTYPE" fromTaz="20" toTaz="26" departLane="free" departSpeed="max"/>
    <trip id="333" depart="15.10" from="1193389" to="2011032" type="DEFAULT_VEHTYPE" fromTaz="12" toTaz="11" departLane="free" departSpeed="max"/>
    <trip id="839" depart="15.27" from="1188035" to="1398689" type="DEFAULT_VEHTYPE" fromTaz="2" toTaz="14" departLane="free" departSpeed="max"/>
    <trip id="1584" depart="15.58" from="1975749" to="1181543" type="DEFAULT_VEHTYPE" fromTaz="4" toTaz="20" departLane="free" departSpeed="max"/>
    <trip id="106" depart="15.72" from="1086780" to="1584238" type="DEFAULT_VEHTYPE" fromTaz="1" toTaz="25" departLane="free" departSpeed="max"/>
    <trip id="1989" depart="15.90" from="1019663" to="1177267" type="DEFAULT_VEHTYPE" fromTaz="8" toTaz="8" departLane="free" departSpeed="max"/>
    <trip id="691" depart="15.95" from="1810069" to="1188014" type="DEFAULT_VEHTYPE" fromTaz="16" toTaz="17" departLane="free" departSpeed="max"/>
    <trip id="1449" depart="16.15" from="1020050" to="1062929" type="DEFAULT_VEHTYPE" fromTaz="26" toTaz="2" departLane="free" departSpeed="max"/>
    <trip id="1563" depart="16.29" from="1716792" to="1743656" type="DEFAULT_VEHTYPE" fromTaz="4" toTaz="1" departLane="free" departSpeed="max"/>
    <trip id="827" depart="16.58" from="1338403" to="1019623" type="DEFAULT_VEHTYPE" fromTaz="2" toTaz="1" departLane="free" departSpeed="max"/>
    <trip id="69" depart="16.72" from="1019655" to="1020029" type="DEFAULT_VEHTYPE" fromTaz="1" toTaz="25" departLane="free" departSpeed="max"/>
    <trip id="200" depart="17.00" from="1019711" to="1401537" type="DEFAULT_VEHTYPE" fromTaz="10" toTaz="15" departLane="free" departSpeed="max"/>
    <trip id="731" depart="17.13" from="1111267" to="1019710" type="DEFAULT_VEHTYPE" fromTaz="17" toTaz="10" departLane="free" departSpeed="max"/>
    <trip id="296" depart="17.37" from="1193389" to="2011032" type="DEFAULT_VEHTYPE" fromTaz="12" toTaz="11" departLane="free" departSpeed="max"/>
    <trip id="88" depart="17.50" from="1019643" to="1020004" type="DEFAULT_VEHTYPE" fromTaz="1" toTaz="25" departLane="free" departSpeed="max"/>
    <trip id="2040" depart="17.55" from="1743806" to="1177267" type="DEFAULT_VEHTYPE" fromTaz="9" toTaz="8" departLane="free" departSpeed="max"/>
    <trip id="1056" depart="17.73" from="1181568" to="1020046" type="DEFAULT_VEHTYPE" fromTaz="20" toTaz="26" departLane="free" departSpeed="max"/>
    <trip id="304" depart="17.75" from="1844800" to="2011032" type="DEFAULT_VEHTYPE" fromTaz="12" toTaz="11" departLane="free" departSpeed="max"/>
    <trip id="1811" depart="17.91" from="1122691" to="1767911" type="DEFAULT_VEHTYPE" fromTaz="7" toTaz="2" departLane="free" departSpeed="max"/>
    <trip id="22" depart="18.01" from="1019655" to="1398689" type="DEFAULT_VEHTYPE" fromTaz="1" toTaz="14" departLane="free" departSpeed="max"/>
    <trip id="689" depart="18.64" from="1810069" to="1111269" type="DEFAULT_VEHTYPE" fromTaz="16" toTaz="17" departLane="free" departSpeed="max"/>
    <trip id="183" depart="18.68" from="-1062845" to="1051036" type="DEFAULT_VEHTYPE" fromTaz="1" toTaz="5" departLane="free" departSpeed="max"/>
    <trip id="58" depart="18.68" from="1019641" to="1020004" type="DEFAULT_VEHTYPE" fromTaz="1" toTaz="25" departLane="free" departSpeed="max"/>
    <trip id="1996" depart="18.85" from="1743806" to="1398689" type="DEFAULT_VEHTYPE" fromTaz="9" toTaz="14" departLane="free" departSpeed="max"/>
    <trip id="2056" depart="18.89" from="1743806" to="1177267" type="DEFAULT_VEHTYPE" fromTaz="9" toTaz="8" departLane="free" departSpeed="max"/>
    <trip id="595" depart="18.97" from="1810069" to="1036159" type="DEFAULT_VEHTYPE" fromTaz="16" toTaz="12" departLane="free" departSpeed="max"/>
    <trip id="1337" depart="19.44" from="1020050" to="1398689" type="DEFAULT_VEHTYPE" fromTaz="26" toTaz="14" departLane="free" departSpeed="max"/>
    <trip id="25" depart="19.60" from="1019643" to="1189936" type="DEFAULT_VEHTYPE" fromTaz="1" toTaz="15" departLane="free" departSpeed="max"/>
    <trip id="329" depart="19.61" from="1193389" to="2011032" type="DEFAULT_VEHTYPE" fromTaz="12" toTaz="11" departLane="free" departSpeed="max"/>
    <trip id="1738" depart="19.66" from="1062246" to="1122692" type="DEFAULT_VEHTYPE" fromTaz="6" toTaz="7" departLane="free" departSpeed="max"/>
    <trip id="1519" depart="19.71" from="1768757" to="1062796" type="DEFAULT_VEHTYPE" fromTaz="3" toTaz="2" departLane="free" departSpeed="max"/>
    <trip id="274" depart="19.92" from="1193389" to="2011032" type="DEFAULT_VEHTYPE" fromTaz="12" toTaz="11" departLane="free" departSpeed="max"/>
    <trip id="482" depart="20.20" from="1051139" to="1181543" type="DEFAULT_VEHTYPE" fromTaz="14" toTaz="20" departLane="free" departSpeed="max"/>
    <trip id="860" depart="20.43" from="1338403" to="1398689" type="DEFAULT_VEHTYPE" fromTaz="2" toTaz="14" departLane="free" departSpeed="max"/>
    <trip id="132" depart="20.75" from="-1062845" to="1020004" type="DEFAULT_VEHTYPE" fromTaz="1" toTaz="25" departLane="free" departSpeed="max"/>
    <trip id="991" depart="20.96" from="1181568" to="1398888" type="DEFAULT_VEHTYPE" fromTaz="20" toTaz="13" departLane="free" departSpeed="max"/>
    <trip id="382" depart="20.98" from="1193389" to="1969025" type="DEFAULT_VEHTYPE" fromTaz="12" toTaz="9" departLane="free" departSpeed="max"/>
    <trip id="856" depart="21.05" from="1062792" to="1398689" type="DEFAULT_VEHTYPE" fromTaz="2" toTaz="14" departLane="free" departSpeed="max"/>
    <trip id="598" depart="21.16" from="1175990" to="1401472" type="DEFAULT_VEHTYPE" fromTaz="16" toTaz="15" departLane="free" departSpeed="max"/>
    <trip id="1443" depart="21.16" from="1020050" to="1767911" type="DEFAULT_VEHTYPE" fromTaz="26" toTaz="2" departLane="free" departSpeed="max"/>
    <trip id="1612" depart="21.26" from="1975749" to="1210226" type="DEFAULT_VEHTYPE" fromTaz="4" toTaz="23" departLane="free" departSpeed="max"/>
    <trip id="918" depart="21.74" from="1338403" to="1063338" type="DEFAULT_VEHTYPE" fromTaz="2" toTaz="7" departLane="free" departSpeed="max"/>
    <trip id="1564" depart="21.92" from="1016692" to="1019710" type="DEFAULT_VEHTYPE" fromTaz="4" toTaz="10" departLane="free" departSpeed="max"/>
    <trip id="321" depart="22.15" from="1193389" to="2011032" type="DEFAULT_VEHTYPE" fromTaz="12" toTaz="11" departLane="free" departSpeed="max"/>
    <trip id="150" depart="22.32" from="1265035" to="1523228" type="DEFAULT_VEHTYPE" fromTaz="1" toTaz="5" departLane="free" departSpeed="max"/>
    <trip id="1814" depart="22.47" from="1122691" to="1062929" type="DEFAULT_VEHTYPE" fromTaz="7" toTaz="2" departLane="free" departSpeed="max"/>
    <trip id="1997" depart="22.49" from="1743806" to="1189937" type="DEFAULT_VEHTYPE" fromTaz="9" toTaz="15" departLane="free" departSpeed="max"/>
    <trip id="2002" depart="22.64" from="1743806" to="1767911" type="DEFAULT_VEHTYPE" fromTaz="9" toTaz="2" departLane="free" departSpeed="max"/>
    <trip id="1667" depart="22.64" from="1315344" to="1584238" type="DEFAULT_VEHTYPE" fromTaz="5" toTaz="25" departLane="free" departSpeed="max"/>
    <trip id="312" depart="23.05" from="1193389" to="2011032" type="DEFAULT_VEHTYPE" fromTaz="12" toTaz="11" departLane="free" departSpeed="max"/>
    <trip id="583" depart="23.34" from="1401473" to="1020029" type="DEFAULT_VEHTYPE" fromTaz="15" toTaz="25" departLane="free" departSpeed="max"/>
    <trip id="660" depart="23.36" from="1204005" to="1935065" type="DEFAULT_VEHTYPE" fromTaz="16" toTaz="17" departLane="free" departSpeed="max"/>
    <trip id="1592" depart="23.47" from="1016692" to="1181543" type="DEFAULT_VEHTYPE" fromTaz="4" toTaz="20" departLane="free" departSpeed="max"/>
    <trip id="401" depart="23.50" from="1398726" to="1743656" type="DEFAULT_VEHTYPE" fromTaz="13" toTaz="1" departLane="free" departSpeed="max"/>
    <trip id="513" depart="23.70" from="1051139" to="1181543" type="DEFAULT_VEHTYPE" fromTaz="14" toTaz="20" departLane="free" departSpeed="max"/>
    <trip id="1290" depart="24.00" from="1020013" to="1020171" type="DEFAULT_VEHTYPE" fromTaz="25" toTaz="3" departLane="free" departSpeed="max"/>
    <trip id="902" depart="24.02" from="1062792" to="1063338" type="DEFAULT_VEHTYPE" fromTaz="2" toTaz="7" departLane="free" departSpeed="max"/>
    <trip id="1264" depart="24.02" from="1019568" to="1063338" type="DEFAULT_VEHTYPE" fromTaz="24" toTaz="7" departLane="free" departSpeed="max"/>
    <trip id="912" depart="24.17" from="1338403" to="1122692" type="DEFAULT_VEHTYPE" fromTaz="2" toTaz="7" departLane="free" departSpeed="max"/>
    <trip id="1331" depart="24.45" from="1020050" to="1398689" type="DEFAULT_VEHTYPE" fromTaz="26" toTaz="14" departLane="free" departSpeed="max"/>
    <trip id="1583" depart="24.53" from="1716792" to="1181543" type="DEFAULT_VEHTYPE" fromTaz="4" toTaz="20" departLane="free" departSpeed="max"/>
    <trip id="755" depart="24.58" from="1111269.111" to="1019569" type="DEFAULT_VEHTYPE" fromTaz="17" toTaz="24" departLane="free" departSpeed="max"/>
    <trip id="500" depart="24.98" from="1051139" to="1181543" type="DEFAULT_VEHTYPE" fromTaz="14" toTaz="20" departLane="free" departSpeed="max"/>
    <trip id="125" depart="25.24" from="1265035" to="1020004" type="DEFAULT_VEHTYPE" fromTaz="1" toTaz="25" departLane="free" departSpeed="max"/>
    <trip id="957" depart="25.93" from="1062797" to="1063338" type="DEFAULT_VEHTYPE" fromTaz="2" toTaz="7" departLane="free" departSpeed="max"/>
    <trip id="323" depart="25.96" from="1193389" to="1401531" type="DEFAULT_VEHTYPE" fromTaz="12" toTaz="11" departLane="free" departSpeed="max"/>
    <trip id="873" depart="26.00" from="1188035" to="1019569" type="DEFAULT_VEHTYPE" fromTaz="2" toTaz="24" departLane="free" departSpeed="max"/>
    <trip id="818" depart="26.02" from="1176012" to="1584238" type="DEFAULT_VEHTYPE" fromTaz="19" toTaz="25" departLane="free" departSpeed="max"/>
    <trip id="253" depart="26.48" from="1051096" to="1215221" type="DEFAULT_VEHTYPE" fromTaz="11" toTaz="18" departLane="free" departSpeed="max"/>
    <trip id="826" depart="26.60" from="1176012" to="1969025" type="DEFAULT_VEHTYPE" fromTaz="19" toTaz="9" departLane="free" departSpeed="max"/>
    <trip id="79" depart="26.67" from="1048407" to="1020004" type="DEFAULT_VEHTYPE" fromTaz="1" toTaz="25" departLane="free" departSpeed="max"/>
    <trip id="785" depart="26.96" from="1215241" to="1716787" type="DEFAULT_VEHTYPE" fromTaz="18" toTaz="4" departLane="free" departSpeed="max"/>
    <trip id="1676" depart="27.01" from="1062246" to="1743656" type="DEFAULT_VEHTYPE" fromTaz="6" toTaz="1" departLane="free" departSpeed="max"/>
    <trip id="2059" depart="27.60" from="1743806" to="1177269" type="DEFAULT_VEHTYPE" fromTaz="9" toTaz="8" departLane="free" departSpeed="max"/>
    <trip id="1885" depart="27.62" from="1063513" to="1020029" type="DEFAULT_VEHTYPE" fromTaz="7" toTaz="25" departLane="free" departSpeed="max"/>
    <trip id="1964" depart="27.81" from="1063513" to="1969025" type="DEFAULT_VEHTYPE" fromTaz="7" toTaz="9" departLane="free" departSpeed="max"/>
    <trip id="732" depart="27.93" from="1111267" to="1401531" type="DEFAULT_VEHTYPE" fromTaz="17" toTaz="11" departLane="free" departSpeed="max"/>
    <trip id="103" depart="28.69" from="1019641" to="1020004" type="DEFAULT_VEHTYPE" fromTaz="1" toTaz="25" departLane="free" departSpeed="max"/>
    <trip id="1030" depart="28.78" from="1181568" to="1020046" type="DEFAULT_VEHTYPE" fromTaz="20" toTaz="26" departLane="free" departSpeed="max"/>
    <trip id="1064" depart="28.82" from="1181568" to="1020046" type="DEFAULT_VEHTYPE" fromTaz="20" toTaz="26" departLane="free" departSpeed="max"/>
    <trip id="1946" depart="29.07" from="1063513" to="1584238" type="DEFAULT_VEHTYPE" fromTaz="7" toTaz="25" departLane="free" departSpeed="max"/>
    <trip id="1638" depart="29.12" from="1523253" to="1062929" type="DEFAULT_VEHTYPE" fromTaz="5" toTaz="2" departLane="free" departSpeed="max"/>
    <trip id="1634" depart="29.15" from="1315344" to="1062929" type="DEFAULT_VEHTYPE" fromTaz="5" toTaz="2" departLane="free" departSpeed="max"/>
    <trip id="768" depart="29.15" from="1215241" to="1036159" type="DEFAULT_VEHTYPE" fromTaz="18" toTaz="12" departLane="free" departSpeed="max"/>
    <trip id="707" depart="29.16" from="1204005" to="1188014" type="DEFAULT_VEHTYPE" fromTaz="16" toTaz="17" departLane="free" departSpeed="max"/>
    <trip id="1552" depart="29.25" from="1768757" to="1016687" type="DEFAULT_VEHTYPE" fromTaz="3" toTaz="4" departLane="free" departSpeed="max"/>
    <trip id="907" depart="29.50" from="1062792" to="1122692" type="DEFAULT_VEHTYPE" fromTaz="2" toTaz="7" departLane="free" departSpeed="max"/>
    <trip id="626" depart="29.82" from="1175990" to="1935065" type="DEFAULT_VEHTYPE" fromTaz="16" toTaz="17" departLane="free" departSpeed="max"/>
    <trip id="1579" depart="30.21" from="1016692" to="1181543" type="DEFAULT_VEHTYPE" fromTaz="4" toTaz="20" departLane="free" departSpeed="max"/>
    <trip id="1543" depart="30.26" from="1020165" to="1135405" type="DEFAULT_VEHTYPE" fromTaz="3" toTaz="21" departLane="free" departSpeed="max"/>
    <trip id="341" depart="30.57" from="1844800" to="1398689" type="DEFAULT_VEHTYPE" fromTaz="12" toTaz="14" departLane="free" departSpeed="max"/>
    <trip id="310" depart="30.60" from="1844800" to="1401531" type="DEFAULT_VEHTYPE" fromTaz="12" toTaz="11" departLane="free" departSpeed="max"/>
    <trip id="412" depart="30.60" from="1398749" to="1398689" type="DEFAULT_VEHTYPE" fromTaz="13" toTaz="14" departLane="free" departSpeed="max"/>
    <trip id="67" depart="30.86" from="1019622" to="1020029" type="DEFAULT_VEHTYPE" fromTaz="1" toTaz="25" departLane="free" departSpeed="max"/>
    <trip id="423" depart="30.89" from="1398726" to="1398689" type="DEFAULT_VEHTYPE" fromTaz="13" toTaz="14" departLane="free" departSpeed="max"/>
    <trip id="1966" depart="30.95" from="1019663" to="1019710" type="DEFAULT_VEHTYPE" fromTaz="8" toTaz="10" departLane="free" departSpeed="max"/>
    <trip id="1908" depart="30.97" from="1063513" to="1584238" type="DEFAULT_VEHTYPE" fromTaz="7" toTaz="25" departLane="free" departSpeed="max"/>
    <trip id="1749" depart="31.05" from="1063513" to="1398689" type="DEFAULT_VEHTYPE" fromTaz="7" toTaz="14" departLane="free" departSpeed="max"/>
    <trip id="36" depart="31.30" from="1019655" to="1584238" type="DEFAULT_VEHTYPE" fromTaz="1" toTaz="25" departLane="free" departSpeed="max"/>
    <trip id="182" depart="31.40" from="1019643" to="1051036" type="DEFAULT_VEHTYPE" fromTaz="1" toTaz="5" departLane="free" departSpeed="max"/>
    <trip id="380" depart="31.50" from="1193389" to="1969025" type="DEFAULT_VEHTYPE" fromTaz="12" toTaz="9" departLane="free" departSpeed="max"/>
    <trip id="211" depart="31.69" from="1019711" to="1810067" type="DEFAULT_VEHTYPE" fromTaz="10" toTaz="16" departLane="free" departSpeed="max"/>
    <trip id="1669" depart="31.76" from="1523253" to="1020174" type="DEFAULT_VEHTYPE" fromTaz="5" toTaz="3" departLane="free" departSpeed="max"/>
    <trip id="124" depart="31.80" from="-1062845" to="1584238" type="DEFAULT_VEHTYPE" fromTaz="1" toTaz="25" departLane="free" departSpeed="max"/>
    <trip id="810" depart="32.26" from="1176012" to="1215221" type="DEFAULT_VEHTYPE" fromTaz="19" toTaz="18" departLane="free" departSpeed="max"/>