<additional>
    <inductionLoop id="121725_C_0" lane="1181571_0" pos="414.85" period="300" file="output_detectors.xml"/>
    <inductionLoop id="121725_C_1" lane="1181571_1" pos="414.95" period="300" file="output_detectors.xml"/>
    <inductionLoop id="121725_D_0" lane="1016682_0" pos="1314.59" period="300" file="output_detectors.xml"/>
    <inductionLoop id="121725_D_1" lane="1016682_1" pos="1313.49" period="300" file="output_detectors.xml"/>

    <inductionLoop id="121726_C_0" lane="1254022_0" pos="913.87" period="300" file="output_detectors.xml"/>
    <inductionLoop id="121726_C_1" lane="1254022_1" pos="914.37" period="300" file="output_detectors.xml"/>
    <inductionLoop id="121726_C_2" lane="1254022_2" pos="914.87" period="300" file="output_detectors.xml"/>
    <inductionLoop id="121726_D_0" lane="1214190_0" pos="175.04" period="300" file="output_detectors.xml"/>
    <inductionLoop id="121726_D_1" lane="1214190_1" pos="175.44" period="300" file="output_detectors.xml"/>
    <inductionLoop id="121726_D_2" lane="1214190_2" pos="175.84" period="300" file="output_detectors.xml"/>

    <inductionLoop id="121727_C_0" lane="1214665_0" pos="141.31" period="300" file="output_detectors.xml"/>
    <inductionLoop id="121727_C_1" lane="1214665_1" pos="141.41" period="300" file="output_detectors.xml"/>
    <inductionLoop id="121727_C_2" lane="1214665_2" pos="141.51" period="300" file="output_detectors.xml"/>
    <inductionLoop id="121727_D_0" lane="1074110_0" pos="1291.92" period="300" file="output_detectors.xml"/>
    <inductionLoop id="121727_D_1" lane="1074110_1" pos="1292.08" period="300" file="output_detectors.xml"/>
    <inductionLoop id="121727_D_2" lane="1074110_2" pos="1292.24" period="300" file="output_detectors.xml"/>

    <inductionLoop id="121729_C_0" lane="1051139_0" pos="147.05" period="300" file="output_detectors.xml"/>
    <inductionLoop id="121729_C_1" lane="1051139_1" pos="147.05" period="300" file="output_detectors.xml"/>
    <inductionLoop id="121729_D_0" lane="1398689_0" pos="693.66" period="300" file="output_detectors.xml"/>
    <inductionLoop id="121729_D_1" lane="1398689_1" pos="693.96" period="300" file="output_detectors.xml"/>
    <inductionLoop id="121729_D_2" lane="1398689_2" pos="694.26" period="300" file="output_detectors.xml"/>

    <inductionLoop id="121730_C_0" lane="2011015_0" pos="515.53" period="300" file="output_detectors.xml"/>
    <inductionLoop id="121730_C_1" lane="2011015_1" pos="515.33" period="300" file="output_detectors.xml"/>
    <inductionLoop id="121730_C_2" lane="2011015_2" pos="515.13" period="300" file="output_detectors.xml"/>
    <inductionLoop id="121730_D_0" lane="1398689_0" pos="143.04" period="300" file="output_detectors.xml"/>
    <inductionLoop id="121730_D_1" lane="1398689_1" pos="143.04" period="300" file="output_detectors.xml"/>
    <inductionLoop id="121730_D_2" lane="1398689_2" pos="143.04" period="300" file="output_detectors.xml"/>
    
    <inductionLoop id="121737_C_0" lane="1051136_0" pos="287.63" period="300" file="output_detectors.xml"/>
    <inductionLoop id="121737_C_1" lane="1051136_1" pos="287.73" period="300" file="output_detectors.xml"/>
    <inductionLoop id="121737_D_0" lane="1051128_0" pos="130.00" period="300" file="output_detectors.xml"/>
    <inductionLoop id="121737_D_1" lane="1051128_1" pos="130.25" period="300" file="output_detectors.xml"/>

    <inductionLoop id="121738_C_0" lane="1051070_0" pos="2314.86" period="300" file="output_detectors.xml"/>
    <inductionLoop id="121738_C_1" lane="1051070_1" pos="2314.86" period="300" file="output_detectors.xml"/>
    <inductionLoop id="121738_D_0" lane="1189895_0" pos="56.00" period="300" file="output_detectors.xml"/>
    <inductionLoop id="121738_D_1" lane="1189895_1" pos="56.00" period="300" file="output_detectors.xml"/>
    <inductionLoop id="121738_D_2" lane="1189895_2" pos="56.00" period="300" file="output_detectors.xml"/>

    <inductionLoop id="121731_C_0" lane="1063682_0" pos="196.06" period="300" file="output_detectors.xml"/>
    <inductionLoop id="121731_C_1" lane="1063682_1" pos="195.86" period="300" file="output_detectors.xml"/>
    <inductionLoop id="121731_C_2" lane="1063682_2" pos="195.66" period="300" file="output_detectors.xml"/>
    <inductionLoop id="121731_C_3" lane="1063682_3" pos="195.46" period="300" file="output_detectors.xml"/>
    <inductionLoop id="121731_D_0" lane="1063512_0" pos="171.06" period="300" file="output_detectors.xml"/>
    <inductionLoop id="121731_D_1" lane="1063512_1" pos="170.86" period="300" file="output_detectors.xml"/>
    <inductionLoop id="121731_D_2" lane="1063512_2" pos="170.66" period="300" file="output_detectors.xml"/>
    <inductionLoop id="121731_D_3" lane="1063512_3" pos="170.46" period="300" file="output_detectors.xml"/>

    <inductionLoop id="121732_C_0" lane="1062244_0" pos="174.66" period="300" file="output_detectors.xml"/>
    <inductionLoop id="121732_C_1" lane="1062244_1" pos="173.26" period="300" file="output_detectors.xml"/>
    <inductionLoop id="121732_C_2" lane="1062244_2" pos="171.86" period="300" file="output_detectors.xml"/>
    <inductionLoop id="121732_C_3" lane="1062244_3" pos="170.46" period="300" file="output_detectors.xml"/>
    <inductionLoop id="121732_D_0" lane="1051023_0" pos="193.70" period="300" file="output_detectors.xml"/>
    <inductionLoop id="121732_D_1" lane="1051023_1" pos="193.30" period="300" file="output_detectors.xml"/>
    <inductionLoop id="121732_D_2" lane="1051023_2" pos="192.90" period="300" file="output_detectors.xml"/>
    <inductionLoop id="121732_D_3" lane="1051023_3" pos="192.50" period="300" file="output_detectors.xml"/>

    <inductionLoop id="121733_C_0" lane="1062753_0" pos="279.06" period="300" file="output_detectors.xml"/>
    <inductionLoop id="121733_C_1" lane="1062753_1" pos="279.06" period="300" file="output_detectors.xml"/>
    <inductionLoop id="121733_C_2" lane="1062753_2" pos="279.06" period="300" file="output_detectors.xml"/>
</additional>