<additional>
    <inductionLoop id="121725_C_0" lane="1181571_0" pos="414.85" period="300" file="output_detectors.xml"/>
    <inductionLoop id="121725_C_1" lane="1181571_1" pos="414.95" period="300" file="output_detectors.xml"/>
    <inductionLoop id="121725_D_0" lane="1016682_0" pos="1314.59" period="300" file="output_detectors.xml"/>
    <inductionLoop id="121725_D_1" lane="1016682_1" pos="1313.49" period="300" file="output_detectors.xml"/>

    <inductionLoop id="121726_C_0" lane="1254022_0" pos="913.87" period="300" file="output_detectors.xml"/>
    <inductionLoop id="121726_C_1" lane="1254022_1" pos="914.37" period="300" file="output_detectors.xml"/>
    <inductionLoop id="121726_C_2" lane="1254022_2" pos="914.87" period="300" file="output_detectors.xml"/>
    <inductionLoop id="121726_D_0" lane="1214190_0" pos="175.04" period="300" file="output_detectors.xml"/>
    <inductionLoop id="121726_D_1" lane="1214190_1" pos="175.44" period="300" file="output_detectors.xml"/>
    <inductionLoop id="121726_D_2" lane="1214190_2" pos="175.84" period="300" file="output_detectors.xml"/>

    <inductionLoop id="121727_C_0" lane="1214665_0" pos="141.31" period="300" file="output_detectors.xml"/>
    <inductionLoop id="121727_C_1" lane="1214665_1" pos="141.41" period="300" file="output_detectors.xml"/>
    <inductionLoop id="121727_C_2" lane="1214665_2" pos="141.51" period="300" file="output_detectors.xml"/>
    <inductionLoop id="121727_D_0" lane="1074110_0" pos="1291.92" period="300" file="output_detectors.xml"/>
    <inductionLoop id="121727_D_1" lane="1074110_1" pos="1292.08" period="300" file="output_detectors.xml"/>
    <inductionLoop id="121727_D_2" lane="1074110_2" pos="1292.24" period="300" file="output_detectors.xml"/>

    <inductionLoop id="121729_C_0" lane="1051139_0" pos="147.05" period="300" file="output_detectors.xml"/>
    <inductionLoop id="121729_C_1" lane="1051139_1" pos="147.05" period="300" file="output_detectors.xml"/>
    <inductionLoop id="121729_D_0" lane="1398689_0" pos="693.66" period="300" file="output_detectors.xml"/>
    <inductionLoop id="121729_D_1" lane="1398689_1" pos="693.96" period="300" file="output_detectors.xml"/>
    <inductionLoop id="121729_D_2" lane="1398689_2" pos="694.26" period="300" file="output_detectors.xml"/>

    <inductionLoop id="121730_C_0" lane="2011015_0" pos="515.53" period="300" file="output_detectors.xml"/>
    <inductionLoop id="121730_C_1" lane="2011015_1" pos="515.33" period="300" file="output_detectors.xml"/>
    <inductionLoop id="121730_C_2" lane="2011015_2" pos="515.13" period="300" file="output_detectors.xml"/>
    <inductionLoop id="121730_D_0" lane="1398689_0" pos="143.04" period="300" file="output_detectors.xml"/>
    <inductionLoop id="121730_D_1" lane="1398689_1" pos="143.04" period="300" file="output_detectors.xml"/>
    <inductionLoop id="121730_D_2" lane="1398689_2" pos="143.04" period="300" file="output_detectors.xml"/>
    
    <inductionLoop id="121737_C_0" lane="1051136_0" pos="287.63" period="300" file="output_detectors.xml"/>
    <inductionLoop id="121737_C_1" lane="1051136_1" pos="287.73" period="300" file="output_detectors.xml"/>
    <inductionLoop id="121737_D_0" lane="1051128_0" pos="130.00" period="300" file="output_detectors.xml"/>
    <inductionLoop id="121737_D_1" lane="1051128_1" pos="130.25" period="300" file="output_detectors.xml"/>

    <inductionLoop id="121738_C_0" lane="1051070_0" pos="2314.86" period="300" file="output_detectors.xml"/>
    <inductionLoop id="121738_C_1" lane="1051070_1" pos="2314.86" period="300" file="output_detectors.xml"/>
    <inductionLoop id="121738_D_0" lane="1189895_0" pos="56.00" period="300" file="output_detectors.xml"/>
    <inductionLoop id="121738_D_1" lane="1189895_1" pos="56.00" period="300" file="output_detectors.xml"/>
    <inductionLoop id="121738_D_2" lane="1189895_2" pos="56.00" period="300" file="output_detectors.xml"/>

    <inductionLoop id="121731_C_0" lane="1063682_0" pos="196.06" period="300" file="output_detectors.xml"/>
    <inductionLoop id="121731_C_1" lane="1063682_1" pos="195.86" period="300" file="output_detectors.xml"/>
    <inductionLoop id="121731_C_2" lane="1063682_2" pos="195.66" period="300" file="output_detectors.xml"/>
    <inductionLoop id="121731_C_3" lane="1063682_3" pos="195.46" period="300" file="output_detectors.xml"/>
    <inductionLoop id="121731_D_0" lane="1063512_0" pos="171.06" period="300" file="output_detectors.xml"/>
    <inductionLoop id="121731_D_1" lane="1063512_1" pos="170.86" period="300" file="output_detectors.xml"/>
    <inductionLoop id="121731_D_2" lane="1063512_2" pos="170.66" period="300" file="output_detectors.xml"/>
    <inductionLoop id="121731_D_3" lane="1063512_3" pos="170.46" period="300" file="output_detectors.xml"/>

    <inductionLoop id="121732_C_0" lane="1062244_0" pos="174.66" period="300" file="output_detectors.xml"/>
    <inductionLoop id="121732_C_1" lane="1062244_1" pos="173.26" period="300" file="output_detectors.xml"/>
    <inductionLoop id="121732_C_2" lane="1062244_2" pos="171.86" period="300" file="output_detectors.xml"/>
    <inductionLoop id="121732_C_3" lane="1062244_3" pos="170.46" period="300" file="output_detectors.xml"/>
    <inductionLoop id="121732_D_0" lane="1051023_0" pos="193.70" period="300" file="output_detectors.xml"/>
    <inductionLoop id="121732_D_1" lane="1051023_1" pos="193.30" period="300" file="output_detectors.xml"/>
    <inductionLoop id="121732_D_2" lane="1051023_2" pos="192.90" period="300" file="output_detectors.xml"/>
    <inductionLoop id="121732_D_3" lane="1051023_3" pos="192.50" period="300" file="output_detectors.xml"/>

    <inductionLoop id="121733_C_0" lane="1062753_0" pos="279.06" period="300" file="output_detectors.xml"/>
    <inductionLoop id="121733_C_1" lane="1062753_1" pos="279.06" period="300" file="output_detectors.xml"/>
    <inductionLoop id="121733_C_2" lane="1062753_2" pos="279.06" period="300" file="output_detectors.xml"/>
    <inductionLoop id="121733_D_0" lane="1051020_0" pos="288.20" period="300" file="output_detectors.xml"/>
    <inductionLoop id="121733_D_1" lane="1051020_1" pos="289.10" period="300" file="output_detectors.xml"/>
    <inductionLoop id="121733_D_2" lane="1051020_2" pos="290.00" period="300" file="output_detectors.xml"/>

    <inductionLoop id="121734_C_0" lane="1051025_0" pos="225.25" period="300.00" file="output_detectors.xml"/>
    <inductionLoop id="121734_C_1" lane="1051025_1" pos="225.25" period="300.00" file="output_detectors.xml"/>
    <inductionLoop id="121734_C_2" lane="1051025_2" pos="225.25" period="300.00" file="output_detectors.xml"/>
    <inductionLoop id="121734_C_3" lane="1051025_3" pos="225.25" period="300.00" file="output_detectors.xml"/>
    <inductionLoop id="121734_D_0" lane="1016654_0" pos="253.50" period="300.00" file="output_detectors.xml"/>
    <inductionLoop id="121734_D_1" lane="1016654_1" pos="253.50" period="300.00" file="output_detectors.xml"/>
    <inductionLoop id="121734_D_2" lane="1016654_2" pos="253.50" period="300.00" file="output_detectors.xml"/>
    <inductionLoop id="121734_D_3" lane="1016654_3" pos="253.50" period="300.00" file="output_detectors.xml"/>
    <inductionLoop id="121734_D_4" lane="1016654_4" pos="253.50" period="300.00" file="output_detectors.xml"/>

    <inductionLoop id="121735_C_0" lane="1051026_0" pos="452.78" period="300.00" file="output_detectors.xml"/>
    <inductionLoop id="121735_C_1" lane="1051026_1" pos="452.78" period="300.00" file="output_detectors.xml"/>
    <inductionLoop id="121735_C_2" lane="1051026_2" pos="452.78" period="300.00" file="output_detectors.xml"/>
    <inductionLoop id="121735_D_0" lane="1016653_0" pos="89.08" period="300.00" file="output_detectors.xml"/>
    <inductionLoop id="121735_D_1" lane="1016653_1" pos="89.08" period="300.00" file="output_detectors.xml"/>
    <inductionLoop id="121735_D_2" lane="1016653_2" pos="89.08" period="300.00" file="output_detectors.xml"/>

    <inductionLoop id="121736_C_0" lane="1062939_0" pos="504.09" period="300.00" file="output_detectors.xml"/>
    <inductionLoop id="121736_C_1" lane="1062939_1" pos="504.09" period="300.00" file="output_detectors.xml"/>
    <inductionLoop id="121736_C_2" lane="1062939_2" pos="504.09" period="300.00" file="output_detectors.xml"/>
    <inductionLoop id="121736_D_0" lane="2020467_0" pos="795.08" period="300.00" file="output_detectors.xml"/>
    <inductionLoop id="121736_D_1" lane="2020467_1" pos="795.08" period="300.00" file="output_detectors.xml"/>
    <inductionLoop id="121736_D_2" lane="2020467_2" pos="795.08" period="300.00" file="output_detectors.xml"/>

    <inductionLoop id="121741_C_0" lane="1254019_0" pos="190.39" period="300.00" file="output_detectors.xml"/>
    <inductionLoop id="121741_C_1" lane="1254019_1" pos="190.39" period="300.00" file="output_detectors.xml"/>
    <inductionLoop id="121741_C_2" lane="1254019_2" pos="190.39" period="300.00" file="output_detectors.xml"/>
    <inductionLoop id="121741_D_0" lane="1122617_0" pos="171.39" period="300.00" file="output_detectors.xml"/>
    <inductionLoop id="121741_D_1" lane="1122617_1" pos="170.89" period="300.00" file="output_detectors.xml"/>
    <inductionLoop id="121741_D_2" lane="1122617_2" pos="170.39" period="300.00" file="output_detectors.xml"/>

    <inductionLoop id="121742_C_0" lane="1254017_0" pos="3.08" period="300.00" file="output_detectors.xml"/>
    <inductionLoop id="121742_C_1" lane="1254017_1" pos="3.08" period="300.00" file="output_detectors.xml"/>
    <inductionLoop id="121742_C_2" lane="1254017_2" pos="3.08" period="300.00" file="output_detectors.xml"/>
    <inductionLoop id="121742_D_0" lane="1020008_0" pos="466.00" period="300.00" file="output_detectors.xml"/>
    <inductionLoop id="121742_D_1" lane="1020008_1" pos="466.00" period="300.00" file="output_detectors.xml"/>
    <inductionLoop id="121742_D_2" lane="1020008_2" pos="466.00" period="300.00" file="output_detectors.xml"/>

    <inductionLoop id="121743_C_0" lane="1019863_0" pos="12.17" period="300.00" file="output_detectors.xml"/>
    <inductionLoop id="121743_C_1" lane="1019863_1" pos="12.17" period="300.00" file="output_detectors.xml"/>
    <inductionLoop id="121743_D_0" lane="1048407_0" pos="155.08" period="300.00" file="output_detectors.xml"/>
    <inductionLoop id="121743_D_1" lane="1048407_1" pos="155.08" period="300.00" file="output_detectors.xml"/>

    <inductionLoop id="121746_C_0" lane="1019714_0" pos="474.69" period="300.00" file="output_detectors.xml"/>
    <inductionLoop id="121746_C_1" lane="1019714_1" pos="474.19" period="300.00" file="output_detectors.xml"/>
    <inductionLoop id="121746_C_2" lane="1051042_0" pos="203.19" period="300.00" file="output_detectors.xml"/>
    <inductionLoop id="121746_D_0" lane="1019707_0" pos="8.69" period="300.00" file="output_detectors.xml"/>
    <inductionLoop id="121746_D_1" lane="1019707_1" pos="8.19" period="300.00" file="output_detectors.xml"/>
    <inductionLoop id="121746_D_2" lane="1019718_0" pos="9.19" period="300.00" file="output_detectors.xml"/>

    <inductionLoop id="121749_C_0" lane="1019715_0" pos="1046.19" period="300" file="output_detectors.xml"/>
    <inductionLoop id="121749_C_1" lane="1019715_1" pos="1047.49" period="300" file="output_detectors.xml"/>
    <inductionLoop id="121749_C_2" lane="1019715_2" pos="1048.69" period="300" file="output_detectors.xml"/>
    <inductionLoop id="121749_D_0" lane="1411220_0" pos="310.50" period="300" file="output_detectors.xml"/>
    <inductionLoop id="121749_D_1" lane="1411220_1" pos="312.50" period="300" file="output_detectors.xml"/>
    <inductionLoop id="121749_D_2" lane="1411220_2" pos="314.50" period="300" file="output_detectors.xml"/>

    <inductionLoop id="121750_C_0" lane="1177259_0" pos="168.04" period="300" file="output_detectors.xml"/>
    <inductionLoop id="121750_C_1" lane="1177259_1" pos="168.14" period="300" file="output_detectors.xml"/>
    <inductionLoop id="121750_D_0" lane="1647234_0" pos="949.04" period="300" file="output_detectors.xml"/>
    <inductionLoop id="121750_D_1" lane="1647234_1" pos="947.14" period="300" file="output_detectors.xml"/>

    <inductionLoop id="121751_C_0" lane="1969025_0" pos="643.65" period="300" file="output_detectors.xml"/>
    <inductionLoop id="121751_C_1" lane="1969025_1" pos="643.55" period="300" file="output_detectors.xml"/>
    <inductionLoop id="121751_D_0" lane="1743806_0" pos="52.85" period="300" file="output_detectors.xml"/>
    <inductionLoop id="121751_D_1" lane="1743806_1" pos="52.75" period="300" file="output_detectors.xml"/>

    <inductionLoop id="121754_C_0" lane="1181487_0" pos="424.53" period="300" file="output_detectors.xml"/>
    <inductionLoop id="121754_C_1" lane="1181487_1" pos="424.43" period="300" file="output_detectors.xml"/>
    <inductionLoop id="121754_D_0" lane="1175979_0" pos="520.53" period="300" file="output_detectors.xml"/>
    <inductionLoop id="121754_D_1" lane="1175979_1" pos="520.43" period="300" file="output_detectors.xml"/>

    <inductionLoop id="121755_C_0" lane="1176005_0" pos="327.18" period="300" file="output_detectors.xml"/>
    <inductionLoop id="121755_C_1" lane="1176005_1" pos="327.18" period="300" file="output_detectors.xml"/>
    <inductionLoop id="121755_D_0" lane="1176008_0" pos="247.28" period="300" file="output_detectors.xml"/>
    <inductionLoop id="121755_D_1" lane="1176008_1" pos="247.28" period="300" file="output_detectors.xml"/>

    <inductionLoop id="121756_C_0" lane="1181559_0" pos="95.91" period="300" file="output_detectors.xml"/>
    <inductionLoop id="121756_C_1" lane="1181559_1" pos="95.81" period="300" file="output_detectors.xml"/>
    <inductionLoop id="121756_D_0" lane="2027240_0" pos="738.81" period="300" file="output_detectors.xml"/>
    <inductionLoop id="121756_D_1" lane="2027240_1" pos="738.81" period="300" file="output_detectors.xml"/>

    <inductionLoop id="121745_C_0" lane="1062798_0" pos="5.57" period="300" file="output_detectors.xml"/>
    <inductionLoop id="121745_C_1" lane="1062798_1" pos="5.57" period="300" file="output_detectors.xml"/>
    <inductionLoop id="121745_D_0" lane="1062796_0" pos="136" period="300" file="output_detectors.xml"/>
    <inductionLoop id="121745_D_1" lane="1062796_1" pos="135.90" period="300" file="output_detectors.xml"/>
    <inductionLoop id="121745_D_2" lane="1062796_2" pos="135.77" period="300" file="output_detectors.xml"/>
</additional>